           7
 
   PB         0.00000000      0.00000000      1.34189300
   H          0.00000000      1.40465300      0.34532400
   H          0.00000000     -1.40465300      0.34532400
   H          1.40530000      0.00000000      2.33853300
   H         -1.40530000      0.00000000      2.33853300
   H          0.00000000      0.00000000     -3.99089600
   CL         0.00000000      0.00000000     -2.71871100
