          16
 
   C         -2.58666868     -0.67281366      0.00000000
   C         -1.09797390     -0.74017125      0.00000000
   C         -0.29065973      0.35557457      0.00000000
   C          1.15086873      0.25225687      0.00000000
   C          1.93042436      1.53734619      0.00000000
   O         -0.62363389     -1.98133145      0.00000000
   N          1.70437045     -0.91870259      0.00000000
   H         -2.93326092      0.35563764      0.00000000
   H         -2.97638922     -1.18498116      0.87750589
   H         -2.97638922     -1.18498116     -0.87750589
   H          0.37682683     -1.89600917      0.00000000
   H         -0.74623535      1.33271599      0.00000000
   H          2.71732184     -0.86233380      0.00000000
   H          1.67721537      2.12739086      0.88018007
   H          1.67721537      2.12739086     -0.88018007
   H          3.00105833      1.34943307      0.00000000
