16
B46    
 C 1.713945 -0.017509 0.565133
 H 1.245828 -0.492341 1.426064
 O 1.935092 -1.072198 -0.368228
 C 0.825403 1.093353 0.012831
 H 0.646749 1.815052 0.8156
 H 1.372917 1.63069 -0.766944
 C -0.506418 0.60575 -0.560704
 H -0.33047 -0.03671 -1.42315
 H -1.087304 1.462139 -0.907114
 H 2.374048 -0.692225 -1.134517
 H 2.664251 0.405114 0.905313
 C -1.349956 -0.157471 0.444213
 H -0.872784 -1.109152 0.691332
 H -1.449949 0.425779 1.367376
 O -2.626893 -0.377564 -0.153237
 H -3.126728 -0.954983 0.428915
