10
5HF (cyc) (Full point group C5h)
H 0.285998 1.756818 0.000000
H 1.759211 0.270887 0.000000
H -1.264009 -1.253190 0.000000
H -1.582455 0.814887 0.000000
H 0.801255 -1.589401 0.000000
F 1.699610 1.234839 0.000000
F -0.649193 1.998011 0.000000
F -0.649193 -1.998011 0.000000
F -2.100833 0.000000 0.000000
F 1.699610 -1.234839 0.000000
