12
3NH3 (cyc) (Full point group C1)
H -1.368356 -0.180977 -0.013169
H 0.842949 -1.094909 0.003968
H 0.528298 1.276672 0.008017
H -1.941415 -1.484031 -0.832875
H 2.256561 -0.944858 0.826735
H -0.321706 2.423720 0.820266
N -1.414869 -1.200455 -0.014850
N 1.748040 -0.623591 0.011230
N -0.333168 1.823765 0.003717
H 2.265911 -0.938111 -0.801018
H -0.309348 2.430495 -0.807547
H -1.952921 -1.486037 0.794944
