33
Coordinates from ORCA-job xao
  N   -1.63319585175866     -1.16186744464671     -0.40861949100216
  C   -0.56558251921819     -0.32601898154630      0.12506726785466
  C   -0.81018610124645      1.12789663444527     -0.30130909608434
  O   -0.21687662381082      1.64552309980824     -1.24286358168023
  C   0.78303137119756     -0.82334221328364     -0.35700739532419
  C   1.94250836348316     -0.11726807557192      0.33274237197910
  H   -1.50107016469667     -1.58367124572720     -1.31247113152489
  H   -0.63545317815746     -0.39570611734190      1.21162639860728
  H   0.84105917445754     -1.89830492991933     -0.17188587975643
  H   1.87545517582233     -0.28116274488961      1.41216614506257
  H   1.85727933882129      0.95692815717723      0.16233889477288
  N   -1.74819515920573      1.75414486491187      0.44365692742042
  H   -2.30128783555783      1.16677316537038      1.05598508194011
  C   -2.21655493815296      3.07533716838010      0.08333155731999
  H   -2.97169637674524      3.04150652978717     -0.70278999092058
  H   -1.37365803624024      3.65414834765995     -0.28168521163204
  H   -2.63704069582630      3.55925029678523      0.96001930972718
  C   -2.83219719554984     -1.28282311309836      0.21183649205612
  O   -3.09256336801320     -0.69336147005591      1.26099432029569
  C   -3.82604339510441     -2.20239196823787     -0.45039868460474
  H   -4.06652843356114     -3.00454197476981      0.24342323305205
  H   -3.46237029440724     -2.63073606181340     -1.38089102814810
  H   -4.74026462258848     -1.64578658915557     -0.64074499925473
  H   0.85003521453511     -0.65652900422249     -1.43413064225626
  C   3.29622644112843     -0.60069208327691     -0.16930257283244
  H   3.36597588787037     -0.42715783989059     -1.24679178604896
  H   3.38405756256928     -1.68077671967596     -0.01758350482208
  C   4.46205496300118      0.09619847203863      0.52386410603386
  H   4.37309265087123      1.17409215910297      0.37829140413041
  H   4.39529327904338     -0.07398947178911      1.60008109870945
  N   5.79808966398950     -0.30662536016783      0.08854671042413
  H   5.90379265043021     -1.30663947067310      0.21170242913098
  H   5.88886505262031     -0.14333901571352     -0.90715875262470
