          33
 
   N         -0.97950030      2.52894161     -0.18468633
   C          0.26360670      1.93035361     -0.19231733
   C          0.13015370      0.57122761     -0.01301733
   C         -1.27829530      0.32048561      0.11213167
   C         -2.03360330     -0.85047739      0.30993767
   C         -3.41049630     -0.74004939      0.39627067
   C         -4.05931830      0.51036461      0.28927267
   C         -3.33659230      1.67602361      0.08979467
   C         -1.94363230      1.56582861      0.00061667
   H         -1.14813730      3.51191761     -0.29368133
   H          1.14959070      2.52830561     -0.32804633
   H         -1.56948730     -1.82298539      0.40966267
   H         -5.13606330      0.54410161      0.38692267
   H         -3.83652230      2.63327661      0.01733067
   O         -4.16617630     -1.87404239      0.63630967
   C         -4.81005330     -2.35832539     -0.53933733
   H         -4.07380530     -2.63542539     -1.29770033
   H         -5.48659930     -1.60984539     -0.95779733
   H         -5.37923930     -3.23619439     -0.24513733
   C          1.21077070     -0.46482339      0.05071467
   C          2.60595870      0.10720361     -0.17293733
   N          3.59323570     -0.95645539     -0.10347333
   C          4.94450970     -0.80704139      0.06954967
   C          5.41620470      0.56344661      0.51143167
   H          1.01767770     -1.23571139     -0.70297033
   H          1.19152270     -0.96880939      1.02075467
   H          2.82147170      0.84198461      0.60152567
   H          2.63800470      0.62257361     -1.13895933
   H          3.33862970     -1.85073139     -0.49481333
   O          5.71528170     -1.73999139     -0.09919033
   H          4.96480970      0.84236761      1.46354667
   H          5.15111870      1.32517561     -0.22215333
   H          6.49497470      0.52733061      0.62044567
