           6
 
   CL         2.91311643     -0.00015064     -0.00004148
   F          1.13477872      0.00571736      0.00012252
   C         -0.92905436     -0.00106064     -0.00007448
   H         -1.03672076     -0.85427575     -0.64940780
   H         -1.03894860     -0.13758666      1.06313678
   H         -1.04317143      0.98735633     -0.41373554
