          17
 
   H         -1.57581686     -1.69737749     -1.32881847
   C         -0.77642057     -1.31318135     -0.70291125
   H          1.97027941      0.35737124      0.00000000
   C          0.32626482     -0.58359509     -1.15742741
   C         -0.77642057     -1.31318135      0.70291125
   H          1.90993739     -1.41640139      0.00000000
   C          1.29420317     -0.50010806      0.00000000
   C         -0.36429442      1.50586765     -0.69397025
   H          0.63966393     -0.53049407     -2.19544478
   C         -0.36429442      1.50586765      0.69397025
   H         -1.57581686     -1.69737749      1.32881847
   C          0.32626482     -0.58359509      1.15742741
   H          0.63966393     -0.53049407      2.19544478
   H          0.46023787      1.95412681      1.24117344
   H         -1.29684476      1.44422263     -1.24394044
   H          0.46023787      1.95412681     -1.24117344
   H         -1.29684476      1.44422263      1.24394044
