42
 
  C   1.02736194797697      1.58365472011405     -0.23122212077887
  C   1.05374719222845      0.26880976335773     -0.46209496595782
  C   -0.15703264200866     -0.38365114033164     -0.46655580907430
  C   -1.32343164780027      0.23658237868464     -0.27189360248660
  C   -1.27369485063355      1.59277324720395     -0.04679484006911
  C   -0.13385271016927      2.28760476510326     -0.01122268542465
  C   2.10843173882614      2.38664755057858     -0.16636808622028
  C   3.34133030879812      1.73986672528816     -0.38342971811690
  C   3.35708990420991      0.25339123487283     -0.66808497003732
  C   2.17268325722210     -0.53337889676804     -0.71711262773886
  C   -0.00552425772140     -1.69619701845540     -0.73493328071964
  C   -1.20758248376233     -2.42773505371979     -0.80472801969026
  C   -2.52239397506226     -1.71990135987973     -0.55656412830503
  C   -2.60425842963272     -0.32926183394777     -0.27124780308020
  C   0.02747508393342      3.65433586995733      0.24651505047534
  C   -1.24008280061259      4.25662068585305      0.48230582883701
  C   -2.53799813933551      3.47827200077837      0.44724460208801
  C   -2.50623024411503      2.09898167236662      0.16193304645249
  C   1.66997688670731      3.73311281702859      0.12804208761043
  C   1.40022265881015     -1.97166048755751     -0.93177639444806
  C   -3.47251782884265      1.02799648382514      0.06275396257294
  C   4.38878741678103      2.70303410658326     -0.27958821149808
  C   4.06859918273334      4.03292766148766     -0.00110510333556
  C   2.75392590857158      4.58295378285899      0.20682890603860
  C   -3.89196516204235      3.86665459768288      0.67425326803016
  C   -4.90209993737494      2.90470491831800      0.59732815913919
  C   -4.74552433761896      1.50452913894118      0.30299154672843
  C   1.58926725748443     -3.29917737292820     -1.25719656552638
  C   0.43053897250132     -4.14958239725994     -1.34095136431809
  C   -0.90061275928160     -3.77944345219289     -1.13924286768671
  H   4.33589244445917     -0.17899766007742     -0.83554011440722
  H   -3.40628633566956     -2.34245683106184     -0.61856895060751
  H   -1.33476567741366      5.31037314024206      0.71402302854416
  H   5.43054134945556      2.43681265120223     -0.40948178363491
  H   4.89287080029094      4.73070135586421      0.07180550277123
  H   2.67231538276184      5.64040652173725      0.42281305416187
  H   -4.16625874299355      4.88604414603145      0.91653772244674
  H   -5.91377691923875      3.24231072904160      0.78273407868794
  H   -5.63129551855842      0.88298892712831      0.28728061670520
  H   2.55860846821918     -3.73441183313038     -1.46354749204399
  H   0.61561486917901     -5.18333086276588     -1.60322893363414
  H   -1.67009563126195     -4.53290539205498     -1.25391002244923
