           5
 
   C          0.00000000      0.00000000      0.00000000
   H          0.62663518     -0.62663518      0.62663518
   H         -0.62663518      0.62663518      0.62663518
   H         -0.62663518     -0.62663518     -0.62663518
   H          0.62663518      0.62663518     -0.62663518
