           5
 
   TE        -1.88552410     -0.36392563      0.00000000
   C          0.21505371      0.02501088      0.00000000
   H          0.67020122     -0.38555597      0.89706639
   H          0.67020122     -0.38555597     -0.89706639
   H          0.33006795      1.11002669      0.00000000
