28
Coordinates from ORCA-job xav
  N   1.29689850186956     -1.06724745644960      0.66787703063179
  H   1.42765713914010     -1.36849415556283      1.61878992101353
  C   0.10255097495910     -0.30045197240196      0.34265108698714
  H   -0.15026077770076     -0.54675239125224     -0.68806127263191
  C   -1.02640383580433     -0.69983564950101      1.27565423907779
  C   0.41147597492240      1.19903877137940      0.44991771391847
  H   -0.76203762764361     -0.39827722239407      2.28941318199935
  H   -1.13014651682474     -1.78412566851673      1.24198119432989
  C   -2.34819702578886     -0.04700236097619      0.90823214217199
  O   0.04677182532198      1.87878968277844      1.40620491677168
  H   -3.09990220056850     -0.24346564131722      1.67432368805242
  H   -2.25058991416255      1.03628196202453      0.85542537520210
  C   -2.90744103176804     -0.55693980989339     -0.39007587113629
  O   -4.01042994694721      0.13585146041655     -0.75678584495143
  O   -2.46645712624575     -1.47449306489012     -1.04515672338736
  C   2.26803951604043     -1.31462341903646     -0.24476987665602
  C   3.41074549008254     -2.17568998281218      0.22886424163038
  O   2.21705620039650     -0.87927547639135     -1.39490551697374
  H   3.42738416753187     -3.08193674674043     -0.37225707137878
  H   3.34018280873417     -2.44522236603076      1.27953468500807
  H   4.34282785261584     -1.64515049157742      0.05198197888641
  N   1.12431095730927      1.66894108883094     -0.59668096980139
  C   1.62912854551752      3.02447148656641     -0.61676202011966
  H   1.49395585304855      0.97414021595709     -1.23569262805248
  H   1.61021030426298      3.41010011908394     -1.63258364239050
  H   0.98860306832636      3.63220518844540      0.01458744759109
  H   2.64842221482060      3.08383052500849     -0.23432569639025
  H   -4.30453839144540     -0.26987662474723     -1.58620770940233
