16
B37    
 C 0.367635 1.909187 -0.009031
 H 1.001439 1.950599 -0.894211
 O -0.444571 3.077321 -0.068494
 C -0.444571 0.621214 -0.01194
 H -1.097004 0.607608 0.867288
 H -1.093642 0.620791 -0.890119
 C 0.444571 -0.621214 -0.01194
 H 1.097004 -0.607608 0.867288
 H 1.093642 -0.620791 -0.890119
 H -0.988595 3.089929 0.723499
 H 1.02443 1.934367 0.867328
 C -0.367635 -1.909187 -0.009031
 H -1.02443 -1.934367 0.867328
 H -1.001439 -1.950599 -0.894211
 O 0.444571 -3.077321 -0.068494
 H 0.988595 -3.089929 0.723499
