5
 
  N   -0.03584975865471     -0.04327420043232     -0.01909653330203
  O   -0.00506609630306      0.04228356956699      1.40258952423515
  H   0.93668394242907     -0.00324232973676     -0.29970354802110
  H   -0.45177475304937      0.83035713913816     -0.31299415647016
  H   -0.41664833442194     -0.77876717853606      1.67387371355814
