          10
 
   C         -0.14670841      1.74759938     -0.00162118
   O          0.53179444      0.50790814      0.02613615
   O         -0.53179444     -0.50790814      0.02613615
   C          0.14670841     -1.74759938     -0.00162118
   H          0.64675040      2.49676143      0.00349271
   H         -0.74787430      1.85229395     -0.90980665
   H         -0.77962228      1.87481894      0.88179897
   H         -0.64675040     -2.49676143      0.00349271
   H          0.74787430     -1.85229395     -0.90980665
   H          0.77962228     -1.87481894      0.88179897
