          33
 
   N         -0.29122194      3.22312370      0.34076427
   C          0.92339206      2.91887770     -0.23877873
   C          0.91198606      1.61626170     -0.69169873
   C         -0.38846794      1.09617270     -0.37991773
   C         -0.99070594     -0.15986030     -0.61123673
   C         -2.29341294     -0.34883030     -0.17589473
   C         -3.00675494      0.68901070      0.47560127
   C         -2.43433694      1.92745170      0.69866427
   C         -1.11615294      2.12322870      0.26165827
   H         -0.55127094      4.12316770      0.70004627
   H          1.70482706      3.66006770     -0.29178573
   H         -0.43554294     -0.94149430     -1.10759173
   H         -4.02052494      0.48343070      0.79032327
   H         -2.99444894      2.71173770      1.19150727
   O         -2.99463294     -1.51643430     -0.31837473
   C         -2.34468794     -2.54885330     -1.04729173
   H         -1.41910594     -2.86404530     -0.56204873
   H         -2.12040894     -2.22782130     -2.06679373
   H         -3.04291294     -3.37997330     -1.07282473
   C          2.03545306      0.84627070     -1.31480473
   C          2.97431506      0.21842570     -0.26850173
   N          2.28196106     -0.49981730      0.78917527
   C          1.67227206     -1.69765530      0.56474727
   C          0.83542106     -2.21259930      1.71751227
   H          2.63447206      1.48911070     -1.96416673
   H          1.62828006      0.04970670     -1.93765173
   H          3.56464306      0.99961670      0.21088927
   H          3.65695206     -0.47536230     -0.75776473
   H          1.98227006      0.02578570      1.59159627
   O          1.78681106     -2.30707930     -0.49268873
   H         -0.18022894     -1.82833430      1.61171727
   H          1.22646806     -1.89571530      2.68327227
   H          0.80529506     -3.29757130      1.67234127
