29
Coordinates from ORCA-job xah
  N   1.67546353869567     -1.00996902817000      0.52887231807884
  H   1.71018994707507     -1.39650965594944      1.45728022972114
  C   0.41346752452787     -0.45732893534479      0.05630389445059
  H   0.37446695849288     -0.62929984215543     -1.01996080371647
  C   -0.74273041377519     -1.17445891058536      0.74392549937477
  C   0.38580832027867      1.05459166561308      0.32066407400779
  H   -0.59765888901093     -2.24717514003428      0.61296475223914
  H   -0.70162400398182     -0.95448529301086      1.81347723339085
  C   -2.07638836727790     -0.81920439460701      0.19025008128688
  O   -0.28552325606033      1.55360795253412      1.22858326847073
  N   -2.67820456372371      0.39653029454022      0.38991162216531
  C   -2.97895807971243     -1.53370515540877     -0.57429810524128
  H   -2.22681509843675      1.15737336836175      0.88136673371652
  C   -3.87815981216134      0.37389494238161     -0.24706845768089
  N   -4.09712427852713     -0.78860832573413     -0.84371715267816
  H   -2.87448782179590     -2.54517651843783     -0.93005371285518
  H   -4.54816903699624      1.21618204556212     -0.24765305547270
  C   2.80789256431821     -0.97113014607615     -0.21631920563490
  C   4.01530643193437     -1.64379001606465      0.38271006258344
  O   2.84701340780691     -0.42753943364774     -1.32032900519840
  H   4.81659506906716     -0.91314011167262      0.46100677870545
  H   4.34526177635659     -2.42398678392546     -0.29903724738697
  H   3.82497821961970     -2.07873243954156      1.36046236506723
  N   1.17471531253015      1.75459321994787     -0.51133988453163
  C   1.37448288205793      3.18064852267548     -0.36261866786602
  H   1.77066838605846      1.21370805943984     -1.12930518237339
  H   1.38761048363603      3.65480796810727     -1.34027000237241
  H   0.55149548890139      3.57687434387992      0.22322727312458
  H   2.30873031010261      3.40122374732282      0.15273629662512
