16
B15    
 C 1.370096 -0.34089 0.653787
 H 0.764139 -1.225809 0.836661
 O 2.060268 -0.596642 -0.570087
 C 0.487183 0.899769 0.590614
 H -0.066426 0.964789 1.529242
 H 1.118124 1.791791 0.5328
 C -0.487183 0.899757 -0.590632
 H 0.066425 0.964761 -1.52926
 H -1.118124 1.79178 -0.532834
 H 2.658041 0.140575 -0.722352
 H 2.076243 -0.251423 1.4844
 C -1.370097 -0.340902 -0.653781
 H -2.076243 -0.251451 -1.484397
 H -0.764141 -1.225825 -0.836637
 O -2.060271 -0.596633 0.570097
 H -2.658014 0.140607 0.722369
