15
 
N    -0.3310925    1.7571570    0.0000000 
N     1.6526263    0.6161452    0.0000000 
C    -0.3970521   -0.6202242    0.0000000 
C     1.0540466   -0.6322768    0.0000000 
C    -1.0120744    0.5754960    0.0000000 
C     1.0302019    1.8378491    0.0000000 
C    -1.1307329   -1.9207587    0.0000000 
O     1.7384814   -1.6383625    0.0000000 
O     1.6383340    2.8885894    0.0000000 
H    -0.8449561    2.6266569    0.0000000 
H     2.6662888    0.6355064    0.0000000 
H    -2.0900023    0.6707908    0.0000000 
H    -0.8829150   -2.5191781   -0.8785562 
H    -0.8829150   -2.5191781    0.8785562 
H    -2.2082386   -1.7582124    0.0000000 
