          32
 
   C         -2.95600499     -0.58997301     -0.54831292
   C         -1.82007489      0.34471263     -1.03249069
   C         -0.47105958     -0.40769164     -0.90156113
   C         -0.25459641     -0.46416748      0.66493479
   C         -1.50287694      0.27361828      1.21243848
   C         -2.73958239     -0.63517897      1.00627190
   C         -1.73532986      1.35693721      0.13407705
   C          0.68956668      0.29815131     -1.61459918
   C          2.05148289     -0.30999467     -1.23447505
   C          2.25834517     -0.43889115      0.31155265
   C          1.07637201      0.17084468      1.08561135
   C          3.59064343      0.17847809      0.75662626
   H         -2.88711544     -1.58279874     -1.01050119
   H         -3.93860876     -0.16950046     -0.79658568
   H         -1.98589265      0.76768031     -2.03031457
   H         -0.56151870     -1.42443851     -1.30885992
   H         -0.25414903     -1.50861546      1.00708874
   H         -1.37943779      0.63213971      2.24114419
   H         -2.56037760     -1.65271109      1.37587521
   H         -3.61152019     -0.23152044      1.53609066
   H         -0.90093553      2.06145181      0.03950566
   H         -2.66546784      1.92078960      0.28336936
   H          0.54436160      0.24344347     -2.70225233
   H          0.68053818      1.36442872     -1.34957402
   H          2.85268052      0.30653661     -1.66635582
   H          2.13945197     -1.30321745     -1.69675990
   H          2.28005650     -1.51008000      0.56297047
   H          1.22950586      0.02896494      2.16467920
   H          1.04693779      1.25649988      0.91024809
   H          3.59978798      1.25644895      0.53788655
   H          4.43625954     -0.28045326      0.22599850
   H          3.74855846      0.04810611      1.83627328
