16
 
N    -0.5051208    1.8498924    0.0000000 
N     1.4874685    0.7096193    0.0000000 
C    -0.5479987   -0.5234560    0.0000000 
C     0.8575212   -0.4695473    0.0000000 
C    -1.1741190    0.6844660    0.0000000 
C     0.8598543    1.9499812    0.0000000 
C    -1.2725894   -1.8315311    0.0000000 
O     1.5184607   -1.5775330    0.0000000 
O     1.4717139    2.9837351    0.0000000 
H    -1.0267202    2.7187353    0.0000000 
H     2.5044406    0.7417125    0.0000000 
H    -2.2527067    0.7675815    0.0000000 
H    -1.0277755   -2.4241065   -0.8820455 
H    -1.0277755   -2.4241065    0.8820455 
H    -2.3480988   -1.6639340    0.0000000 
H     2.4834454   -1.4915089    0.0000000 
