           5
 
   C         -0.34912741      0.20745894      0.00000000
   S         -1.16442807     -1.18417433      0.00000000
   O          0.97848939      0.34242450      0.00000000
   H         -0.81866004      1.18537243      0.00000000
   H          1.35372612     -0.55108154      0.00000000
