          10
 
   O         -2.46302041      1.18518077      0.00000000
   C         -1.34180596      1.20364734      0.00000000
   C          0.03389008      1.25250994      0.00000000
   H          0.46725640      2.24892792      0.00000000
   C          0.75528667      0.10042343      0.00000000
   H          1.83617344      0.22628935      0.00000000
   C          0.24416284     -1.26812254      0.00000000
   H         -0.84242816     -1.35331445      0.00000000
   H          0.65524256     -1.79777088      0.86946796
   H          0.65524256     -1.79777088     -0.86946796
