          43
 
   C         -1.88389722      3.24635206      0.02928730
   C         -0.51725326      3.06358077     -0.01729496
   C          0.18353651      1.82315813      0.11904323
   C          1.52654173      1.75182587     -0.10233335
   N          2.39107012      0.65157460      0.01842926
   C         -2.86732733      2.22118869      0.03897527
   C         -4.22494280      2.46427730      0.07836340
   C         -5.33669181      1.57093425     -0.00285201
   C         -5.40919512      0.18840499     -0.06316319
   C         -4.34048801     -0.72446207      0.06949193
   C         -4.38129670     -2.08664918     -0.13593884
   C         -3.22753633     -2.93077572     -0.08779484
   C         -1.93547216     -2.45536935     -0.10832376
   C         -0.74259379     -3.19125740      0.09776125
   C          0.51586826     -2.62426113      0.15234466
   C          0.81901335     -1.25515809     -0.12900046
   C          2.01358768     -0.69227021      0.19414048
   C          3.78426419      0.97926494     -0.02786960
   O          4.21201368      2.11292259     -0.07146852
   O          4.54525193     -0.13509855     -0.03333098
   C          5.99019876      0.09243416     -0.04295507
   C          6.65450137     -1.27174323     -0.02014435
   H         -2.24961597      4.27496552      0.00819687
   H          0.09906802      3.95207377     -0.16640642
   H         -0.38036067      0.95661367      0.44579007
   H          2.05567783      2.65411198     -0.38998676
   H         -2.50014582      1.20527434     -0.06522126
   H         -4.50687749      3.51886810      0.14029197
   H         -6.29863304      2.08134657     -0.06837240
   H         -6.39919421     -0.23687313     -0.24354778
   H         -3.39337895     -0.31382633      0.39828111
   H         -5.34367463     -2.55344605     -0.35607388
   H         -3.38802675     -4.00930588     -0.03089115
   H         -1.81445669     -1.38383962     -0.25819942
   H         -0.83191080     -4.25920523      0.30284612
   H          1.34586572     -3.25657860      0.47241127
   H          0.06787200     -0.65963869     -0.63399947
   H          2.78593228     -1.30304687      0.64666740
   H          6.25120251      0.69878310      0.83282391
   H          6.23966316      0.66332184     -0.94542068
   H          6.38676352     -1.82417830      0.88861578
   H          7.74394072     -1.14023400     -0.03814316
   H          6.36113621     -1.86405962     -0.89502896
