           8
 
   N          0.00000000      0.00000000     -0.36875516
   H          0.00000000      0.00000000     -1.38378716
   C          1.22577450      0.00000000      0.15784007
   H          1.33931529      0.00000000      1.22986735
   H          2.06809426      0.00000000     -0.51143626
   C         -1.22577450      0.00000000      0.15784007
   H         -1.33931529      0.00000000      1.22986735
   H         -2.06809426      0.00000000     -0.51143626
