          39
 
   N         -0.40955063      1.88595406      2.53145930
   C         -0.50779353      1.27171055      1.55112531
   C         -0.63660217      0.52288867      0.28877725
   C         -0.09164318     -0.91197069      0.42976160
   C         -0.42287439     -1.85143598     -0.55725767
   C          0.14295027     -3.12756858     -0.53911149
   C          1.04489780     -3.48181825      0.47099451
   C          1.37240490     -2.55098424      1.45957446
   C          0.81002872     -1.27033825      1.43763067
   H         -1.13093583     -1.58220139     -1.33803151
   H         -0.12330179     -3.84638853     -1.31164864
   H          1.48680536     -4.47596252      0.48620761
   H          2.07387810     -2.81478696      2.24835751
   H          1.08617401     -0.54693391      2.20096993
   C         -2.14425490      0.50170200     -0.06378425
   C         -2.66560374      1.08822641     -1.22180040
   C         -4.03752076      1.01485012     -1.49796738
   C         -4.89991439      0.35989232     -0.61766846
   C         -4.38448497     -0.22414483      0.54645507
   C         -3.01907052     -0.15431606      0.81763824
   H         -2.01724975      1.60619051     -1.92200246
   H         -4.42634925      1.47440992     -2.40453661
   H         -5.96506767      0.30509900     -0.83302997
   H         -5.04719319     -0.73545779      1.24172941
   H         -2.61792241     -0.61429155      1.71833077
   C          0.22386488      1.27265190     -0.80301437
   C          1.70390237      1.29142950     -0.51030356
   C          2.52034887      0.24354357     -0.96002351
   C          3.87239503      0.25539053     -0.63803274
   C          4.45328778      1.27100033      0.11708606
   C          3.63203453      2.31254015      0.56070507
   C          2.26901713      2.32494596      0.25050324
   H          2.10880225     -0.58308967     -1.53238777
   F          4.65571062     -0.76950098     -1.07440508
   H          5.51558673      1.23881153      0.34387841
   H          4.06067266      3.11794250      1.15302176
   H          1.63617022      3.13230372      0.61044103
   H          0.03432387      0.75280436     -1.74825786
   H         -0.15592304      2.29690255     -0.89138349
