6
 
  H   -0.00632875311476     -0.04084783654691     -0.00818150755843
  N   0.99953758633452     -0.00230969538570     -0.00483617136550
  N   1.47739957561209      1.34271283967645      0.00556578747329
  H   0.71828264706118      2.00420913520683      0.00762829711197
  H   2.03340332052250      1.48238021094367     -0.82227125429861
  H   1.34770704304099     -0.45864761967431      0.82209606377530
