           5
 
   SI         0.00000000      0.00000000      0.00000000
   F          0.91020186     -0.91020186      0.91020186
   F         -0.91020186      0.91020186      0.91020186
   F         -0.91020186     -0.91020186     -0.91020186
   F          0.91020186      0.91020186     -0.91020186
