          26
 
   C         -1.35638512      2.12762636     -0.65400750
   C         -2.65222394      1.75563040     -0.29276679
   C         -2.90548514      0.45405459      0.15305792
   C         -1.86072239     -0.46748317      0.22049909
   C         -0.53965996     -0.11126136     -0.11199581
   C         -0.30606656      1.21168819     -0.54805950
   H         -1.13870708      3.12500384     -1.02877530
   H         -3.46206610      2.47839133     -0.36727539
   H         -3.91249857      0.15544829      0.43508521
   H         -2.06609750     -1.48037997      0.55675982
   C          0.57310981     -1.12021926     -0.00101029
   O          0.93850027      1.60889609     -1.01312387
   C          1.92816937      2.11102795     -0.15339776
   O          2.98828579      2.39775277     -0.63506689
   C          1.53428766      2.27454712      1.29711197
   O          1.68963003     -0.79739643      0.37474858
   C          0.23943854     -2.56023344     -0.39122639
   C          1.46196250     -3.48021001     -0.42960643
   H          0.61925402      2.87261881      1.38870152
   H          2.35794299      2.75880071      1.82629078
   H          1.34094611      1.28633339      1.72798749
   H         -0.27868075     -2.53555244     -1.36139794
   H         -0.50587835     -2.93971715      0.32543634
   H          2.19582684     -3.11674192     -1.15804873
   H          1.16125551     -4.49773882     -0.70781481
   H          1.95586202     -3.51088586      0.54789470
