11
 
B     0.5366278   -3.5603274   -0.0547485 
H     0.7904422   -3.5452829    1.1081096 
H    -0.5966997   -3.4830076   -0.4148017 
H     1.3939622   -3.7967705   -0.8464003 
P    -0.1994851    3.5241352    0.5952333 
H    -0.2514891    3.6272274   -0.8050299 
H    -0.2516348    4.9123992    0.8088183 
H    -1.5836592    3.3383915    0.7488038 
O     0.8654727   -1.1515786   -0.2591104 
C     0.0499778   -0.3395449   -0.3803962 
O    -0.7535147    0.4743586   -0.5004780 
