8

   P     0.000000    0.000000   -3.628273
   C     0.000000    0.000000   -5.152747
   H     0.000000    0.000000   -6.224379
   I     0.000000    0.000000    0.095628
   C     0.000000    0.000000    2.236336
   F     0.000000    1.244253    2.706617
   F    -1.077555   -0.622126    2.706617
   F     1.077555   -0.622126    2.706617
