31
Coordinates from ORCA-job xag
  N   1.20722953052372     -0.35668545851254     -0.45401921991719
  C   0.05990789700028     -0.25255303921851      0.41418058775444
  C   -1.03848073519300     -1.12712854633120     -0.18074115042061
  O   -0.98969838353151     -1.53243266973689     -1.33866122420619
  C   -0.42891484426454      1.20152649726523      0.58078167648252
  C   -0.91964874303065      1.77293439841499     -0.74830090911497
  C   0.67392806282251      2.04924952541894      1.20424436210340
  C   -1.49134382829766      3.18070895772849     -0.62894889613858
  H   0.99380567528074     -0.69029001989046     -1.38370262978049
  H   0.35573663820561     -0.63302873069443      1.39517333707482
  H   -1.27872724179384      1.17241512142400      1.27186288580060
  H   -1.68248661782370      1.11344095562036     -1.16717635519563
  H   -0.08582066274868      1.77036593936438     -1.45442323151237
  H   1.06601202041176      1.58260289469122      2.10596404534989
  H   1.50362066746380      2.15999772384488      0.50585371700926
  H   0.30712822993595      3.04175410678760      1.45814406347994
  H   -2.28340645904491      3.21552524873198      0.12020315243138
  H   -1.91632643144228      3.50708718321675     -1.57674293526359
  H   -0.72990162270473      3.90357869611834     -0.34374498678182
  N   -2.08223089688478     -1.36427711173230      0.64774901244755
  H   -2.00170999867225     -1.07082564282623      1.60538593276199
  C   -3.22639352567596     -2.15266900448094      0.24011957421451
  H   -3.16657934423842     -3.17391293740066      0.61438224623357
  H   -4.14416198981250     -1.69352379451113      0.59864071443937
  H   -3.23531742935974     -2.18081823039701     -0.84462003546149
  C   2.45592825636193     -0.56781225615784      0.05438579121582
  O   2.71150763316896     -0.47524910808786      1.24880604496468
  C   3.51311201534365     -0.90129623972479     -0.97059034450949
  H   3.88902659101856     -1.90152216677857     -0.76626952579407
  H   4.34133527608877     -0.20742343986144     -0.85181436392257
  H   3.14602526089292     -0.85559385228435     -1.99263933574469
