          33
 
   N         -2.38280676     -2.50179652     -0.30911248
   C         -1.11547376     -2.93733851      0.00676451
   C         -0.32366276     -1.86760852      0.36404852
   C         -1.15935276     -0.69873952      0.26710652
   C         -0.94970276      0.67186049      0.52019851
   C         -2.00794776      1.54967048      0.33716752
   C         -3.27603876      1.09359049     -0.08507448
   C         -3.51191676     -0.25024352     -0.32691749
   C         -2.44251276     -1.13585051     -0.15115749
   H         -3.15203276     -3.09310152     -0.56527948
   H         -0.86853276     -3.98627752     -0.03495948
   H          0.00695624      1.04760048      0.85665652
   H         -4.06382976      1.82446748     -0.20461748
   H         -4.48814176     -0.59511751     -0.64299148
   O         -1.88214876      2.89604448      0.60449452
   C         -0.95560176      3.56521648     -0.25752148
   H         -1.29394276      3.50552048     -1.29507048
   H          0.04694324      3.14618649     -0.18397048
   H         -0.94368676      4.60478948      0.05938651
   C          1.12394124     -1.94226852      0.74596652
   C          2.07088824     -1.58865052     -0.41297348
   N          1.93170624     -0.21854651     -0.87346148
   C          2.57955724      0.87084748     -0.36084048
   C          3.80510424      0.60483948      0.49118652
   H          1.35769824     -2.95676752      1.07997352
   H          1.32667924     -1.27348552      1.58679952
   H          1.86753524     -2.25240251     -1.25478148
   H          3.10493424     -1.75365351     -0.11518749
   H          1.07207824      0.01808648     -1.34755648
   O          2.20183724      2.01093148     -0.60488848
   H          4.54432524      0.01862449     -0.05422048
   H          3.54440524      0.05916848      1.39832151
   H          4.23274224      1.56440348      0.76251151
