          16
 
   H         -1.96835558      1.06706738      1.34307148
   C         -1.11416527      1.01457436      0.68421724
   C          0.22922221      0.72932526      1.09945039
   C         -1.11416527      1.01457436     -0.68421724
   H          1.98243683      0.70630025      0.00000000
   N          1.03477849      1.05782438      0.00000000
   C          0.22922221     -1.33411148      0.70659725
   H          0.61593334      0.86963631      2.10018775
   C          0.22922221     -1.33411148     -0.70659725
   H         -1.96835558      1.06706738     -1.34307148
   C          0.22922221      0.72932526     -1.09945039
   H          0.61593334      0.86963631     -2.10018775
   H          1.15484254     -1.56502656     -1.22577544
   H         -0.65530711     -1.66352759      1.23801544
   H          1.15484254     -1.56502656      1.22577544
   H         -0.65530711     -1.66352759     -1.23801544
