          16
 
   O         -0.40822220      1.99678962      0.63472365
   C         -1.02671935      0.96660804      0.33384683
   C         -0.37615860     -0.25719505     -0.06845651
   C          0.98399031     -0.38241056     -0.15126021
   C          1.63163025     -1.66587556     -0.57096684
   C         -2.53680966      0.95196554      0.37801603
   N          1.81898077      0.63168952      0.13791261
   H         -0.98348284     -1.11333502     -0.31606712
   H          1.40123374      1.50799668      0.42504513
   H          2.81037354      0.51232751      0.06978871
   H          0.88571940     -2.42244651     -0.78901536
   H          2.28362750     -2.03610868      0.21946242
   H          2.24027130     -1.50899074     -1.46082281
   H         -2.90256159      1.92244011      0.69563515
   H         -2.93770049      0.71225782     -0.60588285
   H         -2.88417209      0.18428728      1.06804118
