          32
 
   C         -3.05716461      0.23943139      0.83300992
   C         -3.74671709     -0.96247804      0.66097198
   C         -3.10448947     -2.04618615      0.05330089
   C         -1.77835812     -1.92121949     -0.36769793
   C         -1.07150275     -0.71882067     -0.21375098
   C         -1.73400440      0.37083152      0.38760004
   C          0.39306504     -0.65405636     -0.57931143
   C          1.29348558     -0.96649182      0.64909702
   C          2.76265014     -0.86331199      0.30088773
   C          3.38510668      0.46069132      0.20544404
   C          2.81098088      1.63320886      0.52423410
   C         -1.04496294      1.69958632      0.59918393
   C         -0.79964051      2.57267556     -0.57865207
   C         -1.25734596      2.31726686     -1.81263436
   O         -0.72332132      2.07117381      1.72363096
   C          3.49068186     -1.96886954      0.04333309
   H         -4.77698722     -1.05191835      0.99932697
   H         -3.63279953     -2.98735180     -0.08687118
   H         -1.27134212     -2.77035653     -0.82496278
   H         -3.54473600      1.08836651      1.30865163
   H          0.65852028      0.33343751     -0.96970025
   H          0.61238141     -1.38756113     -1.36541236
   H          1.06543131     -1.97929642      1.00319526
   H          1.03872985     -0.27288473      1.46024429
   H          4.54063565     -1.90097669     -0.23997745
   H          3.05403400     -2.96365442      0.11941104
   H          4.41843791      0.46337323     -0.14909202
   H          3.36501460      2.56531043      0.43278554
   H          1.79408865      1.70133213      0.90344589
   H         -0.23961011      3.48179618     -0.35852545
   H         -1.82532739      1.41252313     -2.02400774
   H         -1.07493429      3.00442937     -2.63715833
