13
 
O     2.5979861    1.3770422    0.0000000 
N     0.3324981    1.3062133    0.0000000 
N    -1.9381527    1.1791133    0.0000000 
N     1.6145203   -0.6535054    0.0000000 
C    -0.7582834    0.5606028    0.0000000 
C    -0.7160116   -0.8705119    0.0000000 
C     1.5550293    0.7346668    0.0000000 
C     0.5114982   -1.4286075    0.0000000 
H    -1.6117751   -1.4745325    0.0000000 
H     0.6727631   -2.4980199    0.0000000 
H    -2.8042131    0.6683521    0.0000000 
H    -1.9835316    2.1847070    0.0000000 
H     2.5276724   -1.0855203    0.0000000 
