          37
 
   O         -2.78186508      0.81837844      1.83424338
   C         -3.27286511      0.92837845      0.73524330
   O         -4.09686518      1.93937853      0.38724327
   H         -4.19086518      2.48737857      1.18124333
   C         -3.05186510     -0.00362162     -0.42075679
   H         -2.63786507      0.57037842     -1.25475685
   H         -4.01586517     -0.38362165     -0.76075681
   N         -2.18186503     -1.07262170     -0.02275676
   H         -1.69686499     -1.02762170      0.86724331
   C         -1.87086501     -2.04362178     -0.91175683
   O         -2.35786504     -2.10962178     -2.03575691
   C         -0.84686493     -3.04762185     -0.39975679
   H         -0.79686493     -3.86062191     -1.11675684
   H         -1.15386495     -3.42962188      0.57424329
   N          0.46613517     -2.45162181     -0.26275678
   H          1.18313522     -2.55962182     -0.96575683
   C          0.81713520     -1.75362175      0.83024331
   O          0.05513514     -1.53662174      1.77624338
   C          2.26313531     -1.25962172      0.83424331
   N          2.86713535     -1.42362173     -0.48675679
   H          2.65013534     -0.61262167     -1.05775684
   H          3.87413543     -1.46262173     -0.40775679
   H          2.78913535     -1.92362177      1.52424336
   C          2.32113531      0.16837839      1.40924335
   H          1.82913527      0.16137839      2.38124342
   H          3.37113539      0.43137841      1.55724336
   C          1.66713526      1.16637847      0.49824328
   C          0.30613516      1.46937849      0.62424329
   H         -0.26686489      1.01737846      1.42324335
   C         -0.30186489      2.36537856     -0.25175678
   H         -1.34786497      2.61637858     -0.12975677
   C          0.43213517      2.96137860     -1.27775685
   H         -0.04486487      3.65537866     -1.95575691
   C          1.78813527      2.67437858     -1.40775686
   H          2.37213532      3.14637862     -2.18675692
   C          2.39913532      1.78837851     -0.52075680
   H          3.46313540      1.59637850     -0.60375680
