          16
 
   C          0.68416024      0.33775112     -1.91148268
   C         -0.68416024     -0.33775112     -1.91148268
   H          1.48964553     -0.40143414     -1.91148268
   H          0.81277329      0.96966035     -2.79429200
   H          0.81277329      0.96966035     -1.02867337
   H         -1.48964553      0.40143414     -1.91148268
   H         -0.81277329     -0.96966035     -2.79429200
   H         -0.81277329     -0.96966035     -1.02867337
   C          0.68416024     -0.33775112      1.91148268
   C         -0.68416024      0.33775112      1.91148268
   H          1.48964553      0.40143414      1.91148268
   H          0.81277329     -0.96966035      2.79429200
   H          0.81277329     -0.96966035      1.02867337
   H         -1.48964553     -0.40143414      1.91148268
   H         -0.81277329      0.96966035      2.79429200
   H         -0.81277329      0.96966035      1.02867337
