16
B60    
 C 1.544053 -0.411735 -0.30757
 H 1.490069 -0.415972 -1.396274
 O 2.930458 -0.303101 0.00451
 C 0.729611 0.752127 0.245058
 H 0.762694 0.727247 1.339413
 H 1.219242 1.676709 -0.064008
 C -0.726511 0.763703 -0.22563
 H -0.767477 0.787575 -1.316758
 H -1.217845 1.670819 0.129171
 H 3.01048 -0.316576 0.962083
 H 1.147727 -1.368377 0.045591
 C -1.53739 -0.421899 0.268833
 H -1.162736 -1.354348 -0.162547
 H -1.451711 -0.496178 1.359002
 O -2.891276 -0.201075 -0.119798
 H -3.402479 -0.970666 0.142483
