           5
 
   SI        -0.00061188     -0.67853868     -0.32596358
   H          0.00370443      1.16422482     -0.61329630
   H         -0.00028384      1.19708060      0.17207024
   H          1.28833385     -0.84467921      0.38450894
   H         -1.29114256     -0.83808753      0.38268070
