14

C       -0.043527   -0.011039    0.431388 
C        1.061961    1.052454    0.050602 
C        1.029463   -1.041669    0.096056 
C        1.956398   -0.137313   -0.221003 
C       -1.268353   -0.016356   -0.416443 
C       -2.513646   -0.013758    0.042065 
H       -0.314946    0.020910    1.488672 
H        1.360202    1.704625    0.873090 
H        0.809268    1.669229   -0.812993 
H        1.009421   -2.122907    0.112833 
H        2.984226   -0.210686   -0.549059 
H       -1.093249   -0.030005   -1.488982 
H       -3.365283   -0.019919   -0.624500 
H       -2.723419   -0.005159    1.104954 
