           5
 
   C          0.00000000      0.00000000      0.00000000
   H          0.62850996     -0.62850996      0.62850996
   H         -0.62850996      0.62850996      0.62850996
   H         -0.62850996     -0.62850996     -0.62850996
   H          0.62850996      0.62850996     -0.62850996
