10

C	0.003984	1.128204	0.000000
H	0.003757	2.214376	0.000000
N	0.003984	0.466972	1.134022
H	-0.009479	-0.657363	0.936814
H	0.006918	0.973679	2.001139
H	-0.009479	-0.657363	-0.936814
O	0.067291	-1.720005	0.000000
H	-0.616638	-2.393809	0.000000
N	0.003984	0.466972	-1.134022
H	0.006918	0.973679	-2.001139
