14

C       -0.354685   -0.816651    0.000000 
C        0.809867   -1.534522    0.642789 
C        0.809867   -1.534522   -0.642789 
C       -0.465870    0.668431    0.000000 
C       -1.662442    1.253676    0.000000 
H       -1.322972   -1.314393    0.000000 
H        1.268726   -1.815462    1.573035 
H       -2.573373    0.668594    0.000000 
H        1.268726   -1.815462   -1.573035 
H       -1.770348    2.329846    0.000000 
C        0.809867    1.459468    0.000000 
H        1.420555    1.221432    0.874502 
H        1.420555    1.221432   -0.874502 
H        0.608503    2.528735    0.000000 
