           6
 
   SB         0.00000000      0.00000000      0.71474217
   H          0.00000000      0.00000000     -2.10597083
   BR         0.00000000      0.00000000     -3.52882583
   H          0.69982699      1.21213591      1.64001815
   H          0.69982699     -1.21213591      1.64001815
   H         -1.39965399      0.00000000      1.64001815
