           7
 
   N         -0.72219557      0.27784384      0.00000000
   N          0.02564879      1.38725382      0.00000000
   N          1.26640178      0.97739169      0.00000000
   N          1.33004439     -0.37657021      0.00000000
   C          0.08136949     -0.79585655      0.00000000
   H         -1.72582264      0.34508004      0.00000000
   H         -0.25544623     -1.81514262      0.00000000
