          28
 
   C          2.40026850      1.58653767      0.00000000
   C          2.60137838      0.91937641     -1.20829220
   C          3.00615121     -0.41522139     -1.20836512
   C          3.20975386     -1.08220873      0.00000000
   C          3.00615121     -0.41522139      1.20836512
   C          2.60137838      0.91937641      1.20829220
   C         -0.62774443     -2.12780037      0.00000000
   C         -2.00150826     -2.21992781      0.00000000
   C         -2.50486469     -0.88556096      0.00000000
   C         -1.37569781     -0.01888895      0.00000000
   C         -1.50123292      1.37328964      0.00000000
   C         -2.78428308      1.89816805      0.00000000
   C         -3.91708442      1.05900171      0.00000000
   C         -3.79145014     -0.32019866      0.00000000
   H          2.09077247      2.62265899      0.00000000
   H          2.43954489      1.43521366     -2.14459085
   H          3.15866913     -0.93361860     -2.14483864
   H          3.52518322     -2.11663054      0.00000000
   H          3.15866913     -0.93361860      2.14483864
   H          2.43954489      1.43521366      2.14459085
   H          0.69489271     -0.47436440      0.00000000
   H          0.11937043     -2.90379605      0.00000000
   H         -2.57020893     -3.13408401      0.00000000
   H         -0.63050553      2.01547514      0.00000000
   H         -2.91939013      2.97130929      0.00000000
   H         -4.90223304      1.50546006      0.00000000
   H         -4.66965215     -0.95276961      0.00000000
   N         -0.25587290     -0.80717062      0.00000000
