          14
 
   C         -0.12282076     -1.09054053      1.14065341
   C          0.17199635      0.23301894      1.48248953
   C         -0.12282076      1.35549534      0.70296425
   C         -0.12282076      1.35549534     -0.70296425
   C          0.17199635      0.23301894     -1.48248953
   C         -0.12282076     -1.09054053     -1.14065341
   H          0.82454258      0.40945200      2.34048883
   H         -0.03331673      2.33317669      1.17510642
   H         -0.03331673      2.33317669     -1.17510642
   H          0.82454258      0.40945200     -2.34048883
   H          0.43031244     -1.88602881     -1.64114758
   H         -1.14789312     -1.35457363     -0.93625533
   H          0.43031244     -1.88602881      1.64114758
   H         -1.14789312     -1.35457363      0.93625533
