          43
 
   H          2.25660623      2.82300623     -2.89291387
   C          2.99353094      2.67140939     -2.10094593
   H          3.22536378      3.65294193     -1.67468675
   H          3.90754332      2.25273390     -2.52874653
   C          2.37767949      1.80068059     -1.02076087
   O          1.20464989      1.92851380     -0.67459920
   N          3.20199257      0.84996052     -0.47897796
   H          4.18221801      0.91525207     -0.71447822
   C          2.88828827      0.16220311      0.78516763
   H          3.63751852     -0.63361834      0.88239461
   C          2.96332837      1.08502836      2.00241829
   H          2.23379990      1.89136657      1.91031941
   H          2.73367495      0.52632366      2.91107686
   H          3.96601851      1.51317593      2.08996626
   C          1.51458805     -0.54164194      0.70023263
   O          0.69212980     -0.45848319      1.60475348
   N          1.31301427     -1.27563872     -0.42691470
   H          2.09682059     -1.40668048     -1.04867223
   C          0.14103471     -2.13136155     -0.61946401
   H          0.19924947     -2.49146263     -1.65299183
   C          0.14446296     -3.34924870      0.29994324
   H          0.14593018     -3.01760644      1.34487708
   H         -0.77601212     -3.91635504      0.12398207
   O          1.31454300     -4.10135925     -0.02905108
   H          1.33571602     -4.87379813      0.54833355
   C         -1.17991824     -1.33623549     -0.48549110
   O         -2.15058799     -1.81726208      0.08320442
   N         -1.20376246     -0.16078498     -1.17801652
   H         -0.30756111      0.25044973     -1.40817934
   C         -2.36171293      0.74454340     -1.16399425
   H         -2.01955543      1.64846194     -1.68199850
   C         -3.56109151      0.16194097     -1.91081988
   H         -3.90286328     -0.74998299     -1.41981127
   H         -4.38301230      0.87990269     -1.90550515
   H         -3.28225868     -0.06440279     -2.94491924
   C         -2.76215614      1.20000167      0.26623597
   O         -3.93688270      1.27977062      0.60340051
   N         -1.72073027      1.61747079      1.03906018
   H         -0.78065039      1.39559563      0.73837709
   C         -1.90242733      1.97954345      2.43177347
   H         -1.44934402      1.23333658      3.09402698
   H         -1.45499374      2.95755622      2.64246398
   H         -2.97437095      2.02889589      2.62462803
