27
 
C    -2.7986611   -0.8559577   -0.0378530 
C    -1.4375546   -1.0179923    0.6351974 
C    -0.2837945   -0.7358380   -0.3458714 
C     1.0510932   -0.2963404    0.2620491 
C     1.0444725    1.2447081    0.0952666 
O     0.2181162    1.8826473    1.0325414 
C     0.4053072    1.4100456   -1.2624360 
O    -2.8771835    0.5138428   -0.4754164 
O     2.0564749   -0.8674960   -0.5094432 
O    -1.3727506   -0.3424176    1.8435605 
O    -0.6348222    0.3808870   -1.2709282 
C     3.3216750   -0.9402608    0.1115059 
H    -2.9062438   -1.5392775   -0.8872851 
H    -3.5906319   -1.0612780    0.6843821 
H    -1.3421610   -2.0830662    0.8772270 
H    -0.1392755   -1.6010262   -0.9956895 
H     1.1164694   -0.5854241    1.3208258 
H     2.0630580    1.6475492    0.0939593 
H     0.7209219    2.1913843    1.7902098 
H    -0.0724660    2.3765417   -1.4207230 
H     1.0837633    1.1847134   -2.0832183 
H    -1.6283733    0.6784051   -1.0812199 
H    -1.2918096    0.6102457    1.7245762 
H     3.7397010    0.0473900    0.3392834 
H     3.2804771   -1.5222070    1.0391239 
H     3.9930917   -1.4397467   -0.5829623 
H    -3.7188939    0.7199684   -0.8966622 
