           9
 
   P          0.00000000      0.00000000     -1.23728194
   C          0.00000000      1.39110127     -0.03366823
   C          0.00000000     -1.39110127     -0.03366823
   H          0.00000000      2.34369340     -0.56476956
   H          0.88557322      1.35146109      0.60802633
   H         -0.88557322      1.35146109      0.60802633
   H          0.00000000     -2.34369340     -0.56476956
   H          0.88557322     -1.35146109      0.60802633
   H         -0.88557322     -1.35146109      0.60802633
