9
 
C    -1.0464727   -0.5324702    0.0000000 
C     0.2581442    0.1480658    0.0000000 
O     0.2758653    1.4162847    0.0000000 
O     1.2980286   -0.5807184    0.0000000 
H    -1.1152970   -1.1757464    0.8788536 
H    -1.1152970   -1.1757464   -0.8788536 
H    -1.8639969    0.1808817    0.0000000 
H     2.1575687   -0.1236215    0.0000000 
H     1.1514566    1.8430707    0.0000000 
