          18
 
   SI         1.91873897     -1.10778446      0.38779602
   SI         1.91873897      1.10778446     -0.38779602
   SI         0.00000000      2.21556892      0.38779602
   SI        -1.91873897      1.10778446     -0.38779602
   SI        -1.91873897     -1.10778446      0.38779602
   SI         0.00000000     -2.21556892     -0.38779602
   H          1.89826779     -1.09596542      1.87596105
   H          3.15145900     -1.81949570     -0.04784335
   H          3.15145900      1.81949570      0.04784335
   H          1.89826779      1.09596542     -1.87596105
   H          0.00000000      3.63899140     -0.04784335
   H          0.00000000      2.19193084      1.87596105
   H         -3.15145900      1.81949570      0.04784335
   H         -1.89826779      1.09596542     -1.87596105
   H         -3.15145900     -1.81949570     -0.04784335
   H         -1.89826779     -1.09596542      1.87596105
   H          0.00000000     -2.19193084     -1.87596105
   H          0.00000000     -3.63899140      0.04784335
