           8
 
   S         -1.45620599      1.45620599     -0.36909390
   O         -1.87655153      0.00000000      0.36909390
   S         -1.45620599     -1.45620599     -0.36909390
   O          0.00000000     -1.87655153      0.36909390
   S          1.45620599     -1.45620599     -0.36909390
   O          1.87655153      0.00000000      0.36909390
   S          1.45620599      1.45620599     -0.36909390
   O          0.00000000      1.87655153      0.36909390
