16
 
C    -1.4452769   -0.8945789   -0.6530359 
C    -2.8286860   -0.8908769   -0.3684307 
C    -3.1375070   -0.1063297    0.6981435 
S    -1.7527144    0.6275104    1.3600308 
C    -0.7193656   -0.1162480    0.2025179 
C     0.7193656    0.1162480    0.2025179 
S     1.7527144   -0.6275104    1.3600308 
C     3.1375070    0.1063297    0.6981435 
C     2.8286860    0.8908769   -0.3684307 
C     1.4452769    0.8945789   -0.6530359 
H    -0.9873115   -1.4593053   -1.4471042 
H    -3.5595255   -1.4521636   -0.9249949 
H    -4.1032541    0.0746008    1.1328736 
H     4.1032541   -0.0746008    1.1328736 
H     3.5595255    1.4521636   -0.9249949 
H     0.9873115    1.4593053   -1.4471042 
