          12
 
   N          0.68562845     -0.13383381      1.35697850
   C         -0.51328089      0.26749738      0.61128666
   C         -0.48402936     -0.33088461     -0.79966200
   N          0.65154317      0.06259253     -1.63009302
   H          0.63784592     -1.11371119      1.61607417
   H          0.78869835      0.39961031      2.21169012
   H          0.58468088      1.04487716     -1.87661228
   H          1.50542643     -0.04554715     -1.09113991
   H         -1.45605725     -0.01862949      1.10448686
   H         -0.50925968      1.35936984      0.53579654
   H         -1.40822029     -0.06702669     -1.32162934
   H         -0.48297573     -1.42431427     -0.71717631
