38
 
  C   1.08849452402675      1.35614174864394     -1.48619925564854
  C   2.35169909402090      1.51032694743662     -0.85114271918374
  C   2.86391095215211      0.10922614286526     -0.56657540261189
  C   1.87076190644382     -0.78697460361160     -1.05008093427444
  C   0.86822024201396     -0.02000379969771     -1.66771476313444
  C   -2.11314325996533     -1.83234582068177     -1.20380684851183
  C   -0.70138927696179     -1.79204041707364     -1.37906363105630
  C   -0.36541152214158     -0.50229330846310     -1.82812117049819
  C   -1.48187349579836      0.35174990903613     -1.82039607042200
  C   -2.62319280845496     -0.43267532232764     -1.50073955393072
  C   0.03236845868482      2.28498442267864     -1.51892295595472
  C   -1.34662327263722      1.74730782866264     -1.70204203105983
  C   1.63741024925823     -2.10839286505195     -0.62813386798796
  C   0.25539400681794     -2.64436605299371     -0.79742043779589
  C   -3.79520160627022      0.27064021320414     -1.29062923124912
  C   -3.74947059387519      1.68400457948614     -1.34249080323068
  C   -2.57346823444226      2.41419032527172     -1.49596107196187
  C   0.40882433799164      3.57615845667888     -1.09110959599723
  C   1.69368302983060      3.80722788664692     -0.60638089758423
  C   2.66008075090696      2.78998776042279     -0.42928379091823
  C   -2.61022625631051     -2.96198994212765     -0.57952614595850
  C   -1.69106734737181     -3.93972858160923     -0.13118324434109
  C   -0.30828127484835     -3.78936058676273     -0.19357060454494
  C   2.68846344677606     -2.63852399109621      0.15070864456013
  C   3.76189841653631     -1.83359859711901      0.52258870854449
  C   3.84733275374042     -0.45230858326746      0.22681729530465
  H   -4.72604896453436     -0.21853662368390     -1.03194212248035
  H   -4.67073984365947      2.22875293570569     -1.17782695306631
  H   -2.61119850513448      3.49187763221819     -1.39789342636352
  H   -0.30708879048075      4.38843451193535     -1.08218050194193
  H   1.94454895583627      4.80672483335805     -0.27361418277549
  H   3.58574998690580      3.02562440529232      0.08063094982923
  H   -3.66412501684069     -3.09567973918803     -0.36842234213387
  H   -2.08781212999563     -4.82159119003872      0.35600833520342
  H   0.32081006293662     -4.53333744678929      0.27860673799966
  H   2.64957378509094     -3.65648374548251      0.51775885727863
  H   4.54013249503958     -2.27274464831769      1.13384378481169
  H   4.64100474471321      0.13561532584015      0.67041124308594
