          20
 
   C         -1.79305057     -0.25397147      0.04406782
   C         -1.09339738      0.23194563     -1.23037503
   C          0.39099515     -0.15712593     -1.23515052
   C          1.12831070      0.34254105      0.02032893
   C          0.41856957     -0.14279624      1.28809123
   C         -1.06693940      0.23837451      1.30145028
   N          2.54818906     -0.02481410      0.08294044
   H         -1.81638964     -1.35055133      0.04648771
   H         -2.83512530      0.07909319      0.05436931
   H         -1.59227271     -0.17108575     -2.11665735
   H         -1.18068578      1.32335506     -1.29577050
   H          0.88481758      0.23541894     -2.13066669
   H          0.48289108     -1.25035011     -1.28005678
   H          1.09274031      1.43945518      0.01779865
   H          0.93291422      0.26204351      2.16284717
   H          0.51290745     -1.23582406      1.34512338
   H         -1.15752106      1.32948543      1.36517460
   H         -1.54702616     -0.16331164      2.19849279
   H          2.64944668     -1.03567999      0.10313138
   H          3.04062620      0.30379814     -0.74162682
