
  xtb     04272209213D
 xtb: 6.4.1 (afa7bdf)
  8  7  0     0  0            999 V2000
    0.9653   -0.0126    0.0913 c   0  0  0  0  0  0  0  0  0  0  0  0
    2.4771   -0.0126    0.0913 c   0  0  0  0  0  0  0  0  0  0  0  0
    0.5807    0.7470   -0.5960 h   0  0  0  0  0  0  0  0  0  0  0  0
    0.5807    0.2028    1.0927 h   0  0  0  0  0  0  0  0  0  0  0  0
    0.5807   -0.9876   -0.2229 h   0  0  0  0  0  0  0  0  0  0  0  0
    2.8616    0.9624    0.4055 h   0  0  0  0  0  0  0  0  0  0  0  0
    2.8616   -0.2280   -0.9102 h   0  0  0  0  0  0  0  0  0  0  0  0
    2.8616   -0.7722    0.7786 h   0  0  0  0  0  0  0  0  0  0  0  0
  1  2  1  0  0  0  0
  1  3  1  0  0  0  0
  1  4  1  0  0  0  0
  1  5  1  0  0  0  0
  2  6  1  0  0  0  0
  2  7  1  0  0  0  0
  2  8  1  0  0  0  0
M  END
