          32
 
   C          0.00000000     -1.26094764     -1.28831485
   C          0.00000000      0.00000000     -2.17917867
   C          0.00000000      1.26094764     -1.28831485
   C         -1.25822403      1.25573469     -0.39543177
   C         -1.27919724      0.00000000      0.50787268
   C         -1.25822403     -1.25573469     -0.39543177
   C          1.25822403     -1.25573469     -0.39543177
   C          1.25822403      1.25573469     -0.39543177
   C          1.27919724      0.00000000      0.50787268
   C          0.00000000      0.00000000      1.37585926
   C         -2.52521593      0.00000000      1.39596845
   H          0.00000000     -2.16055389     -1.91937602
   H          0.88836595      0.00000000     -2.82759489
   H         -0.88836595      0.00000000     -2.82759489
   H          0.00000000      2.16055389     -1.91937602
   H         -1.27662075      2.15670970      0.23634438
   H         -2.16441242      1.26841198     -1.01961191
   H         -1.27662075     -2.15670970      0.23634438
   H         -2.16441242     -1.26841198     -1.01961191
   H          1.27662075     -2.15670970      0.23634438
   H          2.16441242     -1.26841198     -1.01961191
   H          1.27662075      2.15670970      0.23634438
   H          2.16441242      1.26841198     -1.01961191
   C          2.52521593      0.00000000      1.39596845
   H          0.00000000      0.88778199      2.02706349
   H          0.00000000     -0.88778199      2.02706349
   H         -3.43828340      0.00000000      0.78368315
   H         -2.54222979     -0.89084401      2.03987815
   H         -2.54222979      0.89084401      2.03987815
   H          3.43828340      0.00000000      0.78368315
   H          2.54222979      0.89084401      2.03987815
   H          2.54222979     -0.89084401      2.03987815
