           7
 
   SB        -0.17907000     -1.33371414      0.00000000
   H          0.46105600     -2.31020014      1.20798200
   H          0.46105600     -2.31020014     -1.20798200
   H         -1.62743300     -2.18480114      0.00000000
   H          1.14472600      3.25722486      0.00000000
   S         -0.17907000      3.10655586      0.00000000
   H         -0.08126500      1.77513486      0.00000000
