31
Coordinates from ORCA-job xad
  N   0.13298629217857      0.89734203079363     -0.55345748205382
  C   -0.08500957893989     -0.37287952402759      0.12459613605800
  C   1.08917336974579     -1.31699963489386     -0.16402195625037
  O   1.01130547765022     -2.24619422690914     -0.96041789925220
  C   -1.40553154976611     -0.98338374580742     -0.30452142321371
  C   -2.62225036206264     -0.08865726799164     -0.07490980308907
  C   -3.88351971846483     -0.82659012640353     -0.51001963978344
  C   -2.73758897350394      0.35458994830641      1.37933105752772
  H   -0.20565546803725      0.99983868581971     -1.49558767073566
  H   -0.08637583246837     -0.14730032541183      1.19059017146296
  H   -1.53488017809129     -1.91770721103367      0.24693501919967
  H   -1.33155628692381     -1.26853684344325     -1.35634127987098
  H   -2.52096536748145      0.80642614079884     -0.69510089759252
  H   -4.03595693045955     -1.71104081144846      0.11070949491462
  H   -4.76439456503711     -0.19285074124396     -0.41165542605835
  H   -3.81355753108394     -1.15478214183024     -1.54695283955469
  H   -2.76402932153574     -0.51543472929162      2.03874362644363
  H   -3.65596555465775      0.91963240875810      1.53742075148762
  H   -1.90375359915813      0.98571952342870      1.68468486397051
  N   2.20267980570183     -1.00295660646335      0.53817403389522
  H   2.18789255024807     -0.12685942382139      1.04553490695935
  C   3.45369185497110     -1.69094929550708      0.30428999448234
  H   4.04071990322849     -1.70003118991183      1.21845577319886
  H   3.23144464296997     -2.71074850162264      0.00569999740416
  H   4.03695361248165     -1.22102873616837     -0.48837974884177
  C   0.88613544270731      1.88563143723096     -0.01181684954438
  O   1.43332153199977      1.76927679325315      1.08531969705715
  C   0.99878353957769      3.14895628987055     -0.82614660706491
  H   2.05174113339147      3.35900537350347     -0.99700136911452
  H   0.58860563578642      3.97036637466833     -0.24320823767615
  H   0.48063902503346      3.09326307679903     -1.78020139436527
