16
B7    
 C 0.123352 1.76273 -0.17993
 H -0.807987 2.195371 -0.545981
 O -0.123352 1.422379 1.182096
 C 0.516153 0.570517 -1.046494
 H 0.663431 0.945322 -2.06183
 H 1.486112 0.189245 -0.714065
 C -0.516153 -0.570517 -1.046494
 H -0.663431 -0.945322 -2.06183
 H -1.486112 -0.189245 -0.714065
 H 0.615676 0.875564 1.469111
 H 0.896444 2.534405 -0.245458
 C -0.123352 -1.76273 -0.17993
 H -0.896444 -2.534405 -0.245458
 H 0.807987 -2.195371 -0.545981
 O 0.123352 -1.422379 1.182096
 H -0.615676 -0.875564 1.469111
