          12
 
   N          1.15437700      0.00000000      0.00000000
   B          0.00000000      1.10500700      0.00000000
   N         -1.15437700      0.00000000      0.00000000
   B          0.00000000     -1.10500700      0.00000000
   H          1.74591900      0.00000000      0.81662200
   H          1.74591900      0.00000000     -0.81662200
   H          0.00000000      1.75295600      1.01656600
   H          0.00000000      1.75295600     -1.01656600
   H         -1.74591900      0.00000000     -0.81662200
   H         -1.74591900      0.00000000      0.81662200
   H          0.00000000     -1.75295600      1.01656600
   H          0.00000000     -1.75295600     -1.01656600
