42
 
  C   -0.20213871214561     -5.40338251818399     -0.20756069107573
  C   0.06897826644895     -4.56536488176000      0.87982861307392
  C   -0.12843405279679     -3.20686438103523      0.77419233150723
  C   -0.58981616026104     -2.60584958554102     -0.40661955071325
  C   -1.08675564095942     -3.49287662289692     -1.40889929780725
  C   -0.80567046236171     -4.87110456207167     -1.32350296951931
  C   -2.03093069001030     -3.00915333779955     -2.36096752166581
  C   -2.55989794444810     -1.77626005157120     -2.18116275554190
  C   -1.99795031498419     -0.85108101666506     -1.24733404323751
  C   -0.81517619945789     -1.17177983626171     -0.53235664508007
  C   -2.62077605044005      0.40871261505146     -1.07680842433025
  C   -1.97713243731717      1.39103438324162     -0.40363907286008
  C   -0.60207404664584      1.23085854241742     -0.08827017467682
  C   0.03495298610670     -0.05136470129180     -0.10415401715820
  C   0.14039264661984      2.44009145437667     -0.04282096859573
  C   1.45744291965863      2.41989810091911     -0.35621426659702
  C   2.13226073565883      1.18171370888052     -0.48354345634153
  C   1.50572509948051     -0.02697181875393     -0.08463024109916
  C   3.44205333748820      1.17011579966803     -1.05404470343463
  C   4.15345383119165      0.02410807622083     -1.16453786546651
  C   3.72084775488167     -1.12166120229645     -0.43654531951044
  C   2.45678340311733     -1.08969301516151      0.22637916808207
  C   4.62053160658958     -2.17617824010878     -0.18183690582753
  C   4.37962689597435     -3.08416692293381      0.82227689000479
  C   3.25272059229933     -2.91268080906424      1.63514692739296
  C   2.32324935626287     -1.94197762001653      1.33502012261238
  H   0.41840506479374     -4.98555225147148      1.81320945106604
  H   5.10985589885597      0.00062623932165     -1.66982478608662
  H   5.09345831320265     -3.86819911071239      1.03515622707800
  H   5.54735870068450     -2.20973345066598     -0.74044935591049
  H   3.82684049539917      2.10369645962082     -1.44538547793999
  H   2.00676452738628      3.33497146314379     -0.53469647564112
  H   -0.39672943393319      3.37381806918015      0.05507408421469
  H   -2.42825171947392      2.36499453948298     -0.26668712298195
  H   -3.59676055769775      0.57231636521278     -1.51541610800393
  H   -2.40555595893036     -3.67727609066697     -3.12492880776457
  H   -0.00572763674613     -6.46509911503250     -0.14142626121533
  H   -1.14541840952930     -5.51577711386104     -2.12436991252404
  H   -3.39474515434987     -1.43769246333002     -2.78087810726368
  H   -0.01112528295218     -2.58822271611857      1.64237702389077
  H   1.51485177914816     -1.76359034719421      2.01891102159054
  H   3.11536365419193     -3.53113803427129      2.51150644535711
