          12
 
   C         -1.20729471     -0.69703193      0.00000000
   C         -1.20729471      0.69703193      0.00000000
   C          0.00000000      1.39406385      0.00000000
   C          1.20729471      0.69703193      0.00000000
   C          1.20729471     -0.69703193      0.00000000
   C          0.00000000     -1.39406385      0.00000000
   H         -2.14375956     -1.23770016      0.00000000
   H         -2.14375956      1.23770016      0.00000000
   H          0.00000000      2.47540031      0.00000000
   H          2.14375956      1.23770016      0.00000000
   H          2.14375956     -1.23770016      0.00000000
   H          0.00000000     -2.47540031      0.00000000
