          14
 
   C         -0.03215574      0.92156011      0.00000000
   C         -0.03422122      0.20494204     -1.20418620
   C         -0.03698032     -1.18394033     -1.19868940
   C         -0.03871348     -1.89241000      0.00000000
   C         -0.03698032     -1.18394033      1.19868940
   C         -0.03422122      0.20494204      1.20418620
   N         -0.08913496      2.31620913      0.00000000
   H         -0.03805150      0.74307324     -2.14623793
   H         -0.03692739     -1.71647151     -2.14280846
   H         -0.04002356     -2.97499501      0.00000000
   H         -0.03692739     -1.71647151      2.14280846
   H         -0.03805150      0.74307324      2.14623793
   H          0.24619430      2.76721444     -0.83727843
   H          0.24619430      2.76721444      0.83727843
