15

   P     0.000000    0.000000    4.090124
   C     0.000000    0.000000    5.615514
   H     0.000000    0.000000    6.687191
   Br    0.000000    0.000000    0.456500
   C     0.000000    0.000000   -1.436207
   C     0.000000    1.206707   -2.115479
   C     0.000000    1.199571   -3.502377
   C     0.000000    0.000000   -4.197678
   C     0.000000   -1.199571   -3.502377
   C     0.000000   -1.206707   -2.115479
   H     0.000000    2.138992   -1.567432
   H     0.000000    2.139733   -4.038684
   H     0.000000    0.000000   -5.279811
   H     0.000000   -2.139733   -4.038684
   H     0.000000   -2.138992   -1.567432
