          20
 
   C         -0.76059200      2.19175700     -0.48828380
   C         -1.32080000      0.78723700     -0.29749580
   C         -0.76059200      0.07828300      0.93396120
   C          0.76059200     -0.07828300      0.93396120
   C          1.32080000     -0.78723700     -0.29749580
   C          0.76059200     -2.19175700     -0.48828380
   H          0.31029100      2.17292500     -0.68516780
   H         -0.92241500      2.79615500      0.40495520
   H         -1.24028200      2.69745200     -1.32490380
   H         -1.12386600      0.19058700     -1.19039080
   H         -2.40673500      0.84253700     -0.20398080
   H         -1.22818300     -0.90381900      1.02564120
   H         -1.05354400      0.63837200      1.82566520
   H          1.05354400     -0.63837200      1.82566520
   H          1.22818300      0.90381900      1.02564120
   H          2.40673500     -0.84253700     -0.20398080
   H          1.12386600     -0.19058700     -1.19039080
   H          1.24028200     -2.69745200     -1.32490380
   H         -0.31029100     -2.17292500     -0.68516780
   H          0.92241500     -2.79615500      0.40495520
