31
Coordinates from ORCA-job xbb
  N   -0.15510136621297      0.87616328062310      0.55691594548351
  C   0.07317877758581     -0.38219214177124     -0.14244004983459
  C   -1.10992691809105     -1.32869444114435      0.11722330647665
  O   -1.01782250256564     -2.32033503368682      0.83208111306978
  C   1.39514146485437     -1.00405507688017      0.27893449663179
  C   2.61689723820433     -0.48972329586540     -0.48059185628549
  C   2.80704929936881      1.01964306256165     -0.37355216449934
  C   3.86398112610427     -1.21371592701409      0.01396564637474
  H   0.24857552622600      0.98683279851975      1.47151112373669
  H   0.08730346432940     -0.14072688333059     -1.20818180154484
  H   1.31015737014853     -2.08176295448311      0.14366131032287
  H   1.53623543681101     -0.85885280619506      1.35543674603929
  H   2.47216879483604     -0.73826823069734     -1.53656820890875
  H   2.90225302470304      1.32030419612907      0.67226825962321
  H   3.71857459804312      1.32370032359106     -0.88823875514643
  H   1.97622853419247      1.57114679830107     -0.80992959724338
  H   4.04924317956243     -0.97378352550518      1.06251476596264
  H   4.74354680313538     -0.91697112020179     -0.55651147069736
  H   3.75333011022737     -2.29463668025305     -0.06699090535171
  N   -2.24086325367636     -0.93867193930805     -0.51398909006995
  H   -2.21447386024691     -0.04423471564404     -0.98896255497815
  C   -3.49846853841049     -1.62162897320304     -0.30582986139490
  H   -4.12076177666432     -1.11099447402433      0.42942955865653
  H   -4.04473480086001     -1.68969067115557     -1.24318029539964
  H   -3.28077499955241     -2.62042192354228      0.05929577477886
  C   -0.87460493302543      1.89117879946158      0.02438191634389
  O   -1.43976178263005      1.79584527632571     -1.06631285325874
  C   -0.91254911687638      3.16167069834997      0.83409218458902
  H   -0.29996854189036      3.90778475039087      0.33112109337130
  H   -0.54686631746238      3.03144050644307      1.84963531673608
  H   -1.93379204016763      3.53097132320861      0.85786090641645
