          33
 
   N         -0.03142873      2.49498406     -0.35981139
   C          1.01040927      1.79526706     -0.93340939
   C          0.65147427      0.48095606     -1.12564839
   C         -0.69774373      0.35996906     -0.64143639
   C         -1.60336373     -0.70976294     -0.57091039
   C         -2.87041173     -0.48779694     -0.04417239
   C         -3.25113773      0.79266806      0.41607961
   C         -2.36716973      1.86510406      0.35235761
   C         -1.09570473      1.64007806     -0.17542339
   H         -0.03332573      3.47988806     -0.16927039
   H          1.94017927      2.28736806     -1.17045539
   H         -1.35066173     -1.70094394     -0.92350239
   H         -4.23653173      0.95870906      0.82283361
   H         -2.67154673      2.84231506      0.70468761
   O         -3.69764573     -1.58211494     -0.00932839
   C         -5.00356273     -1.38554294      0.50482361
   H         -4.97930373     -1.06191594      1.54777661
   H         -5.56154673     -0.65693594     -0.08737039
   H         -5.49611573     -2.35122894      0.44137361
   C          1.52245127     -0.61128094     -1.65934739
   C          1.93101627     -1.61244794     -0.56568039
   N          2.57463827     -0.97151994      0.56821061
   C          3.85705027     -0.51622694      0.48205761
   C          4.33877727      0.29837606      1.66627561
   H          1.00712627     -1.15962794     -2.45295639
   H          2.42919727     -0.18691494     -2.09128339
   H          1.05671227     -2.14285694     -0.18976539
   H          2.62714127     -2.34094294     -0.97758439
   H          1.98550627     -0.58104194      1.28218961
   O          4.57934927     -0.75677594     -0.47635739
   H          4.49920227      1.32506506      1.33983661
   H          3.64049527      0.29444806      2.50119561
   H          5.29647427     -0.09931694      1.99401561
