          52
 
   C         -0.18487764     -0.33153435      0.05824530
   C          0.51180182      0.86636782     -0.52595331
   C          0.40330265     -1.67130750     -0.24154986
   C         -0.01140455      2.23688418      0.02618731
   C          0.47707647      0.81898422     -2.07693726
   C         -0.44241354      2.08389533      1.49602866
   H          0.85168220      2.91484284     -0.00123259
   C         -1.12175134      2.90321789     -0.80180554
   C         -1.61411441      1.10220283      1.61923243
   H          0.39798680      1.71599792      2.10011166
   H         -0.73165610      3.06062410      1.89998747
   C         -1.26537462     -0.24107817      0.95404545
   H         -1.86032102      0.90802905      2.66911611
   H         -2.50799631      1.55544826      1.17297843
   H         -1.30333669     -1.11486193      1.62210500
   SI        -2.98329408     -0.96860408     -0.05041016
   C          1.86898984     -1.72270303      0.28242649
   C          2.70365310     -0.60494359     -0.35583496
   C          2.02876421      0.74552676     -0.07225717
   H         -0.18536494     -2.46892788      0.21796341
   H          0.42722912     -1.83624669     -1.32681307
   H          1.86102612     -1.61251466      1.37454933
   H          2.28452815     -2.70970471      0.04979464
   C          4.15007147     -0.60571640      0.12311147
   H          2.71823201     -0.76917643     -1.44098850
   H          2.08003028      0.95503068      1.00214752
   H          2.55958940      1.55213509     -0.59105882
   C         -4.20940007     -0.92798930      1.38492436
   C         -3.47466025      0.17606468     -1.46384573
   C         -2.65009217     -2.72434266     -0.65051642
   H         -5.17830986     -1.30267175      1.02372981
   H         -3.88709885     -1.57231579      2.21295563
   H         -4.36326713      0.08681188      1.76911542
   H         -4.33206983     -0.29078223     -1.97202768
   H         -3.80014702      1.16289091     -1.11645621
   H         -2.68082966      0.30533187     -2.20822617
   H         -3.59999497     -3.12412907     -1.03598994
   H         -1.91979541     -2.76770817     -1.46652571
   H         -2.31812916     -3.39057305      0.15546890
   H          1.01657868      1.69325379     -2.45759276
   H          0.96258474     -0.07932007     -2.46547190
   H         -0.54843347      0.85873745     -2.45613126
   H         -1.42561408      3.83702646     -0.31362569
   H         -0.78151397      3.14929685     -1.81239128
   H         -2.00553183      2.26623692     -0.89114498
   C          5.15036233     -0.67301362     -0.76283315
   C          4.39863063     -0.52441723      1.61032487
   H          6.19078252     -0.66611734     -0.44252505
   H          4.95845330     -0.73906567     -1.83332359
   H          3.99265155     -1.40354577      2.13154862
   H          5.47139016     -0.47247958      1.82271681
   H          3.92139539      0.36095296      2.05465363
