9
 
S    -2.3450678    0.4518547    0.0000000 
O    -1.6099144   -0.3171140   -1.2913204 
S    -0.3568496    0.3860458   -2.0634769 
O     0.9790813   -0.3547088   -1.2807195 
S     1.5736225    0.3968778    0.0000000 
O     0.9790813   -0.3547088    1.2807195 
S    -0.3568496    0.3860458    2.0634769 
O    -1.6099144   -0.3171140    1.2913204 
H     2.7468106   -0.2771785    0.0000000 
