11
 
B     0.1959300   -2.4042511   -0.1145454 
H     1.3609931   -2.6855430   -0.1998045 
H    -0.3336075   -2.7174693    0.9206903 
H    -0.4569423   -2.6147261   -1.1048204 
P     0.2388373    2.2718138    0.1265619 
H     1.6164030    2.5003983    0.1252069 
H    -0.1156568    2.9927789    1.2693137 
H    -0.1542202    3.1947195   -0.8454612 
O     0.2669322   -0.6703972   -0.0253469 
C    -0.7401070   -0.0283976   -0.0493857 
O    -1.8785617    0.1610739   -0.1024087 
