          14
 
   C          0.70301500      1.81564500      0.00000000
   H          0.18871500      2.20208300      0.87966400
   H          0.18871500      2.20208300     -0.87966400
   H          1.71433600      2.21892700      0.00000000
   C          0.70301500      0.29266800      0.00000000
   H          1.24341800     -0.07694400     -0.87442600
   H          1.24341800     -0.07694400      0.87442600
   C         -0.70301500     -0.29266800      0.00000000
   H         -1.24341800      0.07694400     -0.87442600
   H         -1.24341800      0.07694400      0.87442600
   C         -0.70301500     -1.81564500      0.00000000
   H         -0.18871500     -2.20208300      0.87966400
   H         -1.71433600     -2.21892700      0.00000000
   H         -0.18871500     -2.20208300     -0.87966400
