          33
 
   N          0.44423176      3.03458309      0.42737755
   C          1.53347476      2.46723409     -0.19380145
   C          1.18905776      1.23842109     -0.71749945
   C         -0.20121524      1.04332309     -0.40649645
   C         -1.11264024     -0.00557291     -0.66027145
   C         -2.41059724      0.11947709     -0.18828145
   C         -2.82456324      1.27800009      0.51593455
   C         -1.95032424      2.31654109      0.76958055
   C         -0.63351324      2.18564109      0.30664455
   H          0.42698376      3.94259009      0.85406055
   H          2.47957676      2.98355909     -0.22649045
   H         -0.79087224     -0.88761391     -1.19017745
   H         -3.84939924      1.31971509      0.85775255
   H         -2.27735024      3.19354809      1.31320855
   O         -3.38535524     -0.82508191     -0.34050645
   C         -2.97914524     -2.05566491     -0.92829345
   H         -2.67386624     -1.91114191     -1.96781045
   H         -2.16465024     -2.51120691     -0.36351345
   H         -3.85393724     -2.69838291     -0.90066045
   C          2.12711076      0.30951009     -1.42558145
   C          2.65617676     -0.83661091     -0.54539245
   N          1.65898376     -1.84131891     -0.22945045
   C          0.89795176     -1.97169691      0.89989455
   C          1.22932476     -1.06519691      2.06518255
   H          1.64540676     -0.12204091     -2.30772445
   H          2.98852276      0.87856609     -1.78591345
   H          3.48221876     -1.33117891     -1.06185945
   H          3.05450876     -0.43062891      0.38220155
   H          1.37741576     -2.46620091     -0.96909545
   O          0.00242076     -2.80592391      0.95532755
   H          2.25224176     -1.22834291      2.40637655
   H          1.12185176     -0.01785191      1.78532355
   H          0.53996976     -1.29905191      2.86995455
