          21
 
   C         -0.83900072     -0.55475786      0.12422266
   C          0.10642158     -1.70800857     -0.22089272
   C         -0.27550919      0.57142185     -0.75711774
   C          1.24720642      0.43425602     -0.58725274
   C          1.50329420     -1.05774435     -0.26813272
   C         -0.79722377     -0.22697066      1.61276438
   C         -0.80064345      1.96819224     -0.47222349
   H         -1.86806204     -0.78709905     -0.15874268
   H          0.04748564     -2.53310212      0.48911701
   H         -0.15198458     -2.10149780     -1.20552936
   H         -0.52455593      0.31099914     -1.79061189
   H          1.77860637      0.76806354     -1.47747462
   H          1.58239683      1.06791568      0.23531945
   H          2.14001912     -1.53477918     -1.01067389
   H          2.00669524     -1.16215851      0.69188674
   H          0.20819417      0.05001060      1.93217849
   H         -1.10308097     -1.09301867      2.19961339
   H         -1.46447103      0.59649418      1.86325418
   H         -0.52714866      2.29048242      0.53225661
   H         -1.88698575      2.01165581     -0.55809418
   H         -0.38165347      2.68964532     -1.17386688
