16
 
N    -0.4562489    1.5786596    0.0000000 
N     1.5122543    0.4423016    0.0000000 
C    -0.5753056   -0.8064958    0.0000000 
C     0.8863308   -0.8536009    0.0000000 
C    -1.1764680    0.3886034    0.0000000 
C     0.8626804    1.5940582    0.0000000 
C    -1.3071653   -2.1041553    0.0000000 
O     1.5764423   -1.8213832    0.0000000 
O     1.4256884    2.7610415    0.0000000 
H    -0.9456294    2.4660244    0.0000000 
H     2.5287891    0.4161002    0.0000000 
H    -2.2506629    0.5115900    0.0000000 
H    -1.0436253   -2.6962526   -0.8772654 
H    -1.0436253   -2.6962526    0.8772654 
H    -2.3849593   -1.9524548    0.0000000 
H     2.3915048    2.7722163    0.0000000 
