16
B35    
 C 2.045636 0.35048 0.331751
 H 2.03852 0.223654 1.420018
 O 2.471188 -0.846733 -0.312727
 C 0.679577 0.830499 -0.143847
 H 0.48179 1.806515 0.309616
 H 0.719376 0.977159 -1.225509
 C -0.452507 -0.134272 0.20502
 H -0.470318 -0.302118 1.287676
 H -0.292735 -1.103384 -0.27211
 H 1.900875 -1.558436 -0.0122
 H 2.804636 1.093018 0.091379
 C -1.811544 0.388454 -0.241131
 H -2.011914 1.356909 0.229571
 H -1.813023 0.541887 -1.319757
 O -2.870075 -0.529306 0.014413
 H -2.933077 -0.637858 0.967073
