           6
 
   N          0.00000000      0.00000000     -2.11635787
   C          0.00000000      0.00000000     -0.96670825
   C          0.00000000      0.00000000      0.48949323
   H          0.51145112      0.88585932      0.86452430
   H          0.51145112     -0.88585932      0.86452430
   H         -1.02290223      0.00000000      0.86452430
