21
 
N     1.2953631    1.7080794   -0.1786875 
C     1.5562579    0.4426582    0.4988580 
C     1.8578035   -0.6217330   -0.5460385 
O     2.0099445   -1.8110621    0.0175106 
H     1.4086260    2.4849765    0.4614951 
O     1.9446000   -0.4026348   -1.7178403 
H    -0.4232690    1.4205347   -0.7722535 
H     2.4257078    0.4912502    1.1700325 
C     0.3354281    0.0486945    1.3501276 
C    -0.8827570   -0.1403936    0.5113064 
H     0.1535577    0.8375836    2.0874442 
H     0.5381153   -0.8595230    1.9172807 
C    -1.8967570   -1.0425249    0.5363844 
N    -1.1455558    0.7017110   -0.5402079 
H    -2.0855061   -1.8759860    1.1924383 
H    -3.5878922   -1.2000023   -0.7412633 
C    -2.2583287    0.3417575   -1.1447325 
N    -2.7359318   -0.7137521   -0.4994870 
H    -2.7005970    0.8120195   -2.0081728 
H     1.9409289    1.8495294   -0.9478465 
H     2.2502617   -2.4711827   -0.6463480 
