26
Coordinates from ORCA-job xaf
  N   0.96033370374333     -0.04726392400523     -0.16744004871468
  C   -0.01480432185819      0.60996496511961      0.69933817578861
  C   -1.46677189569993      0.22052445318559      0.46135051879782
  O   -2.31893781003374      0.45972984257028      1.30753775995405
  C   0.17384875484700      2.10225081695902      0.37219389175297
  C   1.63166303843024      2.18518460490459     -0.07069217547998
  C   1.79481915085930      0.91490088233889     -0.89489494448625
  H   0.19244427183032      0.42359676717050      1.75414412673541
  H   -0.48074389515118      2.37240442491440     -0.45824463525795
  H   -0.07832814638388      2.73026416098059      1.22197552955139
  H   2.29209112286694      2.14635726643941      0.79599348340167
  H   1.85398116285809      3.08775897509664     -0.63565391460995
  H   1.42748600595071      1.05503824587438     -1.91440528035765
  H   2.80992072441255      0.53150137275024     -0.95026279052118
  N   -1.71674427843604     -0.32150841178484     -0.75419256424268
  H   -0.91979611493236     -0.51256833174408     -1.33873858669135
  C   -3.05013994962250     -0.68990500232178     -1.17590113663983
  H   -3.11146393284066     -1.75456720519100     -1.39363832760549
  H   -3.72299317318168     -0.45341296747433     -0.35719633799750
  H   -3.35158770325535     -0.12897330251597     -2.05865363314366
  C   1.39547434893230     -1.34080934601993     -0.00553065615586
  O   2.33293764404002     -1.78634127693055     -0.65610104752236
  C   0.64445467583432     -2.16745797059586      1.01029413921408
  H   -0.42558715111385     -2.17503810955486      0.81179414917750
  H   1.03224974774359     -3.17933095588294      0.97037932083039
  H   0.78992302016067     -1.76732097428278      2.01348498422248
