14
 
  C   2.94293902729415      0.18834712632574      0.31812453680162
  C   1.82805343423956      0.11689667364766     -0.52814645284236
  C   2.03395246307922     -0.04159050413326     -1.90574544751538
  C   3.32128834657096     -0.12186315168493     -2.41521617403181
  C   4.42612910954087     -0.04958689237576     -1.57294337106301
  C   4.22434863875360      0.10427148673019     -0.20561009065320
  P   0.18461807976422      0.22725298482806      0.12713600284997
  H   -0.03344391094494      0.37549548238381      1.48331018555512
  H   -0.90238116303150      0.17082250095060     -0.72502820926902
  H   1.18970835236434     -0.10531841856013     -2.57954654124720
  H   3.46065181842255     -0.24643139066351     -3.48124820420451
  H   5.42737091532475     -0.11346801139030     -1.97578901056881
  H   5.07193826395197      0.16534074209548      0.46413647565120
  H   2.80750462467025      0.31483037184635      1.38428330053738
