19
 
C          0.63004        1.18251        2.07403
C         -0.01598       -0.08948        1.52346
N         -0.01656       -0.10766        0.00775
H          0.94185       -0.10811       -0.37223
H         -0.49955       -0.94468       -0.35129
H         -0.49621        0.72219       -0.37270
H         -1.06116       -0.17776        1.84639
H          0.51995       -0.99172        1.83695
H          0.62588        1.12661        3.16983
H          1.65755        1.28850        1.71330
H          0.05269        2.06961        1.78001
O          2.44469        0.40635       -0.40888
S          3.06963        0.00682       -1.73778
C          4.14553        1.41060       -2.14827
O          3.93711       -1.17080       -1.60487
O          2.01740       -0.04825       -2.77896
H          4.63115        1.18883       -3.10488
H          3.53147        2.31408       -2.22698
H          4.89043        1.51023       -1.35167
