          28
 
   C          0.62324922      0.44075816     -1.95016369
   C         -0.62324922     -0.44075816     -1.95016369
   C          1.91958768     -0.36472013     -1.95016269
   C         -1.91958768      0.36472013     -1.95016269
   H          0.59762921      1.09858239     -1.07222438
   H          0.59762821      1.09858339     -2.82810201
   H         -0.59762921     -1.09858239     -1.07222438
   H         -0.59762821     -1.09858339     -2.82810201
   H          2.79738700      0.28809110     -1.95016269
   H          1.97878770     -1.00728336     -1.06614838
   H          1.97878870     -1.00728436     -2.83417601
   H         -2.79738700     -0.28809110     -1.95016269
   H         -1.97878770      1.00728336     -1.06614838
   H         -1.97878870      1.00728436     -2.83417601
   C          0.62324922     -0.44075816      1.95016369
   C         -0.62324922      0.44075816      1.95016369
   C          1.91958768      0.36472013      1.95016269
   C         -1.91958768     -0.36472013      1.95016269
   H          0.59762921     -1.09858239      1.07222438
   H          0.59762821     -1.09858339      2.82810201
   H         -0.59762921      1.09858239      1.07222438
   H         -0.59762821      1.09858339      2.82810201
   H          2.79738700     -0.28809110      1.95016269
   H          1.97878770      1.00728336      1.06614838
   H          1.97878870      1.00728436      2.83417601
   H         -2.79738700      0.28809110      1.95016269
   H         -1.97878770     -1.00728336      1.06614838
   H         -1.97878870     -1.00728436      2.83417601
