           8
 
   N         -0.45451522      0.21870193      0.00000000
   N          0.37232336      0.19757915      1.17353971
   N          0.37232336      0.19757915     -1.17353971
   H          0.50266120     -0.75195487     -1.53082191
   H         -0.11089378      0.74253907     -1.88459933
   H          0.50266120     -0.75195487      1.53082191
   H         -0.11089378      0.74253907      1.88459933
   H         -1.07366634     -0.59502865      0.00000000
