          37
 
   O         -2.28983801      1.62324337      0.37259462
   C         -3.41983810      1.88324339      0.02659460
   O         -3.99983814      3.08324348      0.22459461
   H         -3.34083809      3.62924352      0.67859465
   C         -4.36383817      0.94024331     -0.69240546
   H         -4.57683819      1.35224335     -1.67640553
   H         -5.29583824      0.90824331     -0.13240542
   N         -3.81683813     -0.38075679     -0.80640547
   H         -3.05983807     -0.52575680     -1.46840552
   C         -3.73283812     -1.12575684      0.33759462
   O         -4.37583817     -0.88275682      1.34959470
   C         -2.69383804     -2.23375693      0.26059461
   H         -2.72883804     -2.74575697     -0.69940546
   H         -2.86583806     -2.93675698      1.06859468
   N         -1.38383794     -1.62875688      0.41159463
   H         -1.04983792     -1.35375686      1.32759470
   C         -0.79083790     -0.98275683     -0.61340545
   O         -1.19283793     -1.02675683     -1.77940554
   C          0.46416220     -0.21875677     -0.23240542
   N          0.41216219      0.17024326      1.17259468
   H          1.32216226      0.51324328      1.45959471
   H         -0.24783786      0.93424331      1.28059469
   H          0.51616220      0.62524329     -0.92540548
   C          1.67816229     -1.12475684     -0.48140544
   H          1.59716228     -1.99475691      0.17159461
   H          1.63416229     -1.46775687     -1.51640552
   C          2.96316239     -0.39475679     -0.22040542
   C          3.64616244     -0.54875680      0.98859467
   H          3.26516241     -1.24575685      1.72559473
   C          4.80916253      0.17424326      1.24959469
   H          5.32816257      0.03924325      2.18959476
   C          5.30516256      1.06324332      0.29959462
   H          6.20916263      1.62224337      0.49759463
   C          4.63316251      1.22424334     -0.91240547
   H          5.01716254      1.90724339     -1.65740553
   C          3.47116243      0.50124328     -1.16740549
   H          2.95416239      0.62424329     -2.11140557
