32
Coordinates from ORCA-job xal
  N   -1.58958337396589     -0.43644871669677     -0.41978943228878
  C   -1.23038543337664      0.57235573733677      0.53729426428479
  C   -0.75744687800187      1.77814316086697     -0.26618489944605
  O   -0.50856806654261      1.70621301826703     -1.46501830609000
  C   -0.13070147552512      0.09131168573742      1.51541016315205
  C   1.06905406511568     -0.42918918826442      0.78447529538848
  C   2.07237593185614      0.43295657445131      0.33132652128894
  C   1.17219310249539     -1.79262150523552      0.49217592218364
  C   3.15317912476348     -0.05456018381350     -0.39918007793373
  C   2.25188369067335     -2.28465697849111     -0.23813158081320
  C   3.24335715744652     -1.41503088514960     -0.68876970128328
  H   -1.25672761425917     -0.27640440234999     -1.35935100882509
  H   -2.10925264554612      0.84173919279669      1.12901414957423
  H   -0.57381469043650     -0.69273474512836      2.12690368046903
  H   0.14438231789374      0.92078902698800      2.16909938758313
  H   2.00722191109741      1.49068587648483      0.55680135987372
  H   0.40601730346725     -2.46731444244926      0.85504956960381
  H   3.92276034426143      0.62426595112728     -0.74090822729630
  H   2.32113064651817     -3.34297012370535     -0.45108137326050
  H   4.08298266161991     -1.79480291837668     -1.25466849153412
  N   -0.58307025336381      2.91354066481239      0.45035955219379
  H   -0.92451655105187      2.94507131571351      1.39457134421047
  C   -0.14338419896900      4.13612812125365     -0.19131577612423
  H   0.24610956184160      4.81351384990577      0.56275567999455
  H   0.64185315682339      3.89426066763118     -0.90151465034858
  H   -0.95290496263464      4.62477647576947     -0.73270147410266
  C   -2.18690270388257     -1.59728175054988     -0.05806035126219
  O   -2.53167043571744     -1.82785332997993      1.09820741211279
  C   -2.37208121432953     -2.59573006564826     -1.17441024110593
  H   -3.33062530495924     -3.08962541339747     -1.04628109586387
  H   -1.58984295244956     -3.34980324861332     -1.09683671170397
  H   -2.31893722086189     -2.13964642129284     -2.15996390263096
