           7
 
   C         -0.26241957     -0.59415454      0.00000000
   C          0.31843992      0.79068738      0.00000000
   O         -0.32857204      1.80653364      0.00000000
   H         -1.34937326     -0.55869981      0.00000000
   H          0.09702135     -1.13980213      0.87667778
   H          0.09702135     -1.13980213     -0.87667778
   H          1.42788226      0.83523758      0.00000000
