           6
 
   C          0.00000000      0.66740297      0.00000000
   C          0.00000000     -0.66740297      0.00000000
   H          0.92339000      1.23379146      0.00000000
   H          0.92339000     -1.23379146      0.00000000
   H         -0.92339000      1.23379146      0.00000000
   H         -0.92339000     -1.23379146      0.00000000
