           7
 
   C         -0.85580427      0.09223767     -0.00003875
   N          1.74448806      0.23322588      0.00000625
   H         -1.08289010     -0.40956837      0.93304716
   H         -1.07613780     -0.48801836     -0.88815338
   H         -1.17646452      1.12616804     -0.04579179
   H          0.53269809      0.23025985      0.00099225
   H          1.91411054     -0.78430471     -0.00006175
