7
 
  C   -0.02390885627557     -0.05302641663315     -0.10745866578343
  N   0.00092066825824      0.00365468344940      1.44477708016972
  H   0.94208618779814     -0.01259041963198      1.82514474753541
  H   -0.46202504306172      0.82039651080639      1.83220555804372
  H   -0.47773812151175     -0.80605899270518      1.81564860500214
  H   -0.49462389264234      0.88965947573447     -0.38874381678550
  H   1.02864905743500      0.04713015898005     -0.37957750818206
