28
Coordinates from ORCA-job xad
  N   0.64748501640568     -0.92328857310682     -0.31581785155811
  H   0.24873868221520     -1.01354203950146     -1.23548389487764
  C   -0.25888178667825     -0.86787766574891      0.81965980563850
  H   -0.12355872170964     -1.75745630375525      1.43472886196614
  C   0.02735742690529      0.35005583223016      1.70846908307842
  C   -1.71534511043123     -0.87411483813496      0.37549601111173
  H   1.07320608789774      0.30242934963524      2.00474510991322
  H   -0.58275308431633      0.25575486868996      2.60689944813076
  C   -0.27933568813076      1.70513409594400      1.05972484122647
  O   -2.57740982569363     -1.39728653732610      1.07003133095707
  H   -1.33956153153237      1.80220608173341      0.83797682673648
  H   0.00075824490775      2.49236167393115      1.75845182621002
  C   0.47983306410834      1.93130092086996     -0.21632078297314
  O   1.77765115506885      2.20190959500602      0.01171774790044
  O   0.01183447164020      1.89025300939062     -1.33936744168481
  C   1.95713231964142     -1.27358540680376     -0.14515260418204
  C   2.73874141378144     -1.45592797733286     -1.42438594699474
  O   2.45807180527939     -1.42151120118356      0.96103532256855
  H   2.89964496961007     -2.52004242601077     -1.58821653612018
  H   3.71217491181981     -0.98910892739459     -1.30349994999829
  H   2.23447383243700     -1.03546790227837     -2.29162704750746
  N   -1.98884629732657     -0.26678988736302     -0.81301157523294
  C   -3.37793597803499     -0.13342196931207     -1.21477435101130
  H   -1.33804010281010      0.43037930539426     -1.15693494439632
  H   -3.93575329706947      0.51185553925003     -0.53566634997703
  H   -3.41200454427374      0.27951314140670     -2.21827305014590
  H   -3.85063556452511     -1.11099856273658     -1.20853178395583
  H   2.18607713081403      2.30902080450760     -0.86096610482207
