          60
 
   C         -2.66908040     -0.73732116     -2.58628379
   C         -1.41956561     -1.19741219     -3.02944953
   C         -0.67918645      0.00000000     -3.45569596
   C         -2.66908040      0.73732116     -2.58628379
   C         -1.41956561      1.19741219     -3.02944953
   C         -3.26910365      1.18284439     -1.38208080
   C         -3.26910365     -1.18284439     -1.38208080
   C         -3.68823268      0.00000000     -0.62342945
   C         -2.66457940     -2.26302497     -0.71929115
   C         -0.73603936     -2.25744447     -2.33059568
   C         -1.42870671     -2.82779561     -1.21956949
   C          0.73603936     -2.25744447     -2.33059568
   C          0.67918645      0.00000000     -3.45569596
   C          1.41956561     -1.19741219     -3.02944953
   C          1.41956561      1.19741219     -3.02944953
   C         -0.73603936      2.25744447     -2.33059568
   C          0.73603936      2.25744447     -2.33059568
   C         -2.66457940      2.26302497     -0.71929115
   C         -1.42870671      2.82779561     -1.21956949
   C         -2.62626160      2.28914407      0.73237046
   C         -3.56984307      0.00000000      0.76221176
   C         -3.07122523      1.17840829      1.46201251
   C         -2.62626160     -2.28914407      0.73237046
   C         -3.07122523     -1.17840829      1.46201251
   C         -0.69292005     -3.33515455     -0.07124931
   C         -1.42263431     -2.98352642      1.13711439
   C          1.42870671     -2.82779561     -1.21956949
   C          0.69292005     -3.33515455     -0.07124931
   C          2.66457940     -2.26302497     -0.71929115
   C          2.66908040     -0.73732116     -2.58628379
   C          2.66908040      0.73732116     -2.58628379
   C          3.26910365     -1.18284439     -1.38208080
   C          3.26910365      1.18284439     -1.38208080
   C          3.68823268      0.00000000     -0.62342945
   C          1.42870671      2.82779561     -1.21956949
   C          2.66457940      2.26302497     -0.71929115
   C         -0.69292005      3.33515455     -0.07124931
   C         -1.42263431      2.98352642      1.13711439
   C          0.69292005      3.33515455     -0.07124931
   C         -0.72588085      2.58255419      2.27967687
   C         -2.31910107      0.72800995      2.61735990
   C         -2.31910107     -0.72800995      2.61735990
   C         -1.17735509      1.42384691      3.02912053
   C         -0.72588085     -2.58255419      2.27967687
   C         -1.17735509     -1.42384691      3.02912053
   C          1.42263431     -2.98352642      1.13711439
   C          2.62626160     -2.28914407      0.73237046
   C          0.72588085     -2.58255419      2.27967687
   C          3.56984307      0.00000000      0.76221176
   C          3.07122523     -1.17840829      1.46201251
   C          2.62626160      2.28914407      0.73237046
   C          1.42263431      2.98352642      1.13711439
   C          0.72588085      2.58255419      2.27967687
   C          3.07122523      1.17840829      1.46201251
   C          0.00000000      0.69955185      3.47864416
   C          0.00000000     -0.69955185      3.47864416
   C          1.17735509     -1.42384691      3.02912053
   C          2.31910107     -0.72800995      2.61735990
   C          1.17735509      1.42384691      3.02912053
   C          2.31910107      0.72800995      2.61735990
