33
 
  C   -3.20322682390252      1.02580966314641      0.46213888752479
  C   -2.49176079580564      2.26153066982692      0.45950043576560
  C   -1.20874437237354      2.35402179201643     -0.07442544113411
  C   -2.63952427345337     -0.13003536316114     -0.07099977324187
  C   -2.84325017641388     -1.64274333259518      0.19003732718441
  C   3.20322766465377      1.02581068108019      0.46213193024321
  C   2.63952262504996     -0.13003391982828     -0.07100519348886
  C   2.84324683887969     -1.64273806307812      0.19004485000565
  C   2.49176476609199      2.26153252486539      0.45949152070707
  C   1.20874734642795      2.35402236535441     -0.07443213569156
  C   0.71627754948657      1.21336716618115     -0.71270008723543
  C   1.40744255688196      0.01522284954245     -0.71167626192866
  C   0.69133678273561     -1.22526471831695     -0.71112356834214
  C   1.43101626025271     -2.22129641155445     -0.07085018052603
  C   0.71322417602958     -3.29130005953157      0.45735096097259
  C   -0.71322782746095     -3.29130519416625      0.45733980328461
  C   -1.43101851800028     -2.22129753455298     -0.07085606867074
  C   -0.69133775877510     -1.22526214178220     -0.71112050834539
  C   -1.40744472400510      0.01522437697527     -0.71166976457863
  C   -0.71627786877770      1.21336734217791     -0.71269414790996
  C   0.00000253132957      3.28854661618814      0.18361634027649
  H   2.92683416512710      3.08982418063484      1.00516382654181
  H   4.13653050438946      0.98478211419266      1.00995716912985
  H   0.00000644089444      3.67289217214419      1.20398484120522
  H   -2.92683201635587      3.08982195634140      1.00517102809227
  H   -4.13652625450389      0.98478114953299      1.00996875742821
  H   -3.59205415582481     -2.07446108981230     -0.47987030115825
  H   -1.21742785578392     -4.08101935932221      1.00037897423770
  H   1.21742133123187     -4.08101106470746      1.00039768528164
  H   3.17780654342262     -1.83569666737890      1.20968901593738
  H   -3.17781235416022     -1.83571152292647      1.20967835685460
  H   -0.00000004006955      4.15307225576123     -0.48623154297218
  H   3.59205773278147     -2.07445643324751     -0.47985373544930
