           7
 
   C          0.86548829      0.00013163     -0.03872055
   C         -0.62448963      0.00029563     -0.01678556
   H         -1.03251704      0.88972021     -0.49738154
   H          1.41935695     -0.92392368      0.03215946
   H         -1.01516003     -0.01320138      1.00832035
   H         -1.03294567     -0.87659407     -0.51989962
   H          1.42026713      0.92357168      0.03230747
