          33
 
   N          0.54084355      2.22319800     -0.91348679
   C          1.40046355      1.25416600     -1.38313379
   C          0.83952355      0.00792000     -1.21336179
   C         -0.43786645      0.22296500     -0.59466479
   C         -1.46108745     -0.64186800     -0.16089679
   C         -2.58686545     -0.09202900      0.42713421
   C         -2.72570645      1.30413900      0.59444921
   C         -1.73528145      2.17636200      0.17113321
   C         -0.59383545      1.62181400     -0.42096379
   H          0.73065855      3.20885500     -0.90833279
   H          2.36152355      1.52565900     -1.78873179
   H         -1.38792545     -1.71679000     -0.26511779
   H         -3.61561245      1.68127000      1.08009221
   H         -1.84066245      3.24469600      0.30918421
   O         -3.57961045     -0.93215900      0.90021521
   C         -4.71617345     -0.97069900      0.04102321
   H         -4.44134445     -1.34657500     -0.94748479
   H         -5.16526445      0.01892200     -0.06757579
   H         -5.43364945     -1.64471900      0.50163521
   C          1.49167655     -1.31275300     -1.46820379
   C          2.24754455     -1.82309500     -0.22579579
   N          3.36236655     -0.96876000      0.13813521
   C          3.32737555      0.11992100      0.97592521
   C          2.19412855      0.18182900      1.97767121
   H          2.19771055     -1.23534100     -2.29866579
   H          0.74405455     -2.05652000     -1.75568279
   H          2.62970455     -2.82807700     -0.41557479
   H          1.56570455     -1.89089300      0.61964121
   H          4.11924155     -0.90862900     -0.52729679
   O          4.21048355      0.96634200      0.93913821
   H          2.12407355     -0.74334800      2.54970921
   H          1.23923855      0.34511600      1.47871821
   H          2.39456955      1.00908100      2.65116521
