12
 
C    -0.7184417   -0.3002624   -1.3415095 
C     0.5990982   -0.1959236   -1.2462078 
B    -1.0586319    0.4780889    0.0000000 
N     0.9070790    0.4666427    0.0000000 
C     0.5990982   -0.1959236    1.2462078 
C    -0.7184417   -0.3002624    1.3415095 
H    -1.5040560    1.5877572    0.0000000 
H    -1.2693859   -0.8296936    2.1051986 
H     1.4016927   -0.5307005    1.8963227 
H     1.6491416    1.1506652    0.0000000 
H     1.4016927   -0.5307005   -1.8963227 
H    -1.2693859   -0.8296936   -2.1051986 
