29
Coordinates from ORCA-job xat
  N   -1.09350080194272     -1.11655626596305     -0.04701877179897
  C   -0.35036468052078     -0.17472463064377      0.77941803663427
  C   -0.37561982495407      1.25066385288328      0.19618045743925
  O   0.65414518149530      1.84924669545697     -0.12578042754806
  C   1.07743125812889     -0.65885653145889      0.96236495050036
  C   1.80124116098041     -0.93369375051759     -0.37019495364787
  C   3.26181165984666     -0.52662441509713     -0.29511876743203
  O   4.17542832387658     -1.33591859606330     -0.22526597583037
  H   -0.57117604973117     -1.71858286216757     -0.66054937780997
  H   -0.86305410789125     -0.13480347598128      1.74315028011721
  H   1.61101449498218      0.10928079588707      1.51839097657691
  H   1.07269543288994     -1.55990919707695      1.57485899588805
  H   1.33008934337658     -0.36510526923481     -1.17226295000720
  H   1.78159111147436     -1.99158614915505     -0.62283512350619
  C   -2.43646008020760     -1.26870879096813      0.02955317165106
  O   -3.14161191415415     -0.54000609962987      0.73013738384609
  N   -1.61188733753827      1.76837547153267      0.10122297217388
  H   -2.37895685240889      1.17883137638010      0.41081568959847
  C   -1.86213709846055      3.08591537538438     -0.44226788550902
  H   -2.50475597407313      3.02640927875806     -1.31859628891927
  H   -2.33589498814354      3.72515908582885      0.30008830549115
  H   -0.90721734973536      3.51624119048795     -0.72598080819237
  C   -3.01987390850665     -2.39206247107016     -0.78689268869793
  H   -2.29260187609067     -2.87543949211721     -1.43413582796750
  H   -3.83612178922249     -1.99844217840242     -1.38658926663556
  H   -3.43652726376573     -3.13040474120996     -0.10507385064924
  N   3.43590581422668      0.81984619387693     -0.30105336012210
  H   4.36187925750774      1.17932873416424     -0.15501728750783
  H   2.63150585856171      1.42939886611664     -0.26649760813524
