          10
 
   C          0.85850831      0.85149922     -0.05406558
   C          0.85665794     -0.53234843     -0.02148388
   N         -1.21895564     -0.93022557     -0.12349726
   N         -1.66704575      0.25593414     -0.01212111
   N         -1.21073866      1.33091420     -0.05063028
   H          1.03972910      1.42014742      0.84839247
   H          1.04072512      1.37132654     -0.98626823
   H          1.02509073     -1.05697875      0.91129082
   H          1.04207243     -1.10394180     -0.92050185
   H         -1.76604359     -1.60632696      0.40888490
