31
Coordinates from ORCA-job xaj
  N   -0.18704644604573      1.11024074369190      0.39786264750896
  C   0.19894321166290     -0.15946133334909     -0.20251015446339
  C   -0.79944378092571     -1.21807459686079      0.27893285503807
  O   -0.58777896524662     -1.93053768506334      1.25523308520584
  C   1.63894021591244     -0.52846893630566      0.13299361063344
  C   2.59632330472303      0.59415431457726     -0.26873449879146
  C   1.99164947805510     -1.83850701767322     -0.56494135625700
  C   4.04098239127316      0.33647636005190      0.14356640669299
  H   0.14155207743137      1.31756616932048      1.32646713803521
  H   0.09489548694437     -0.02756258210775     -1.28129205702467
  H   1.69561208268401     -0.68690155835755      1.21462874131862
  H   2.26383590002976      1.53341966023532      0.17456927064378
  H   2.53792763834191      0.73085370466374     -1.35269907202978
  H   1.29890316701182     -2.62855672778623     -0.28579441759258
  H   1.95911744214140     -1.70686280132223     -1.64859431632504
  H   2.99298523436518     -2.16865352681548     -0.29785524802104
  H   4.10639512392689      0.13690262856038      1.21357901891502
  H   4.66637151288830      1.20087895984180     -0.07351580362435
  H   4.46658941252596     -0.51623784848195     -0.38093816897938
  N   -1.93832315598798     -1.24981997274747     -0.45194334697946
  H   -2.08992280940302     -0.46622501169827     -1.07426974759767
  C   -3.06299021777812     -2.05433469469835     -0.02260148683713
  H   -3.71697114298978     -2.23770711453252     -0.87002775568599
  H   -2.68809919914103     -2.99962935696974      0.35753395346872
  H   -3.63259522990941     -1.57074074763855      0.77189096052196
  C   -1.15327683157047      1.89111144049990     -0.14863765733146
  O   -1.72276166941678      1.59605232288886     -1.19905213580867
  C   -1.47133546215870      3.16064346587544      0.59942845685599
  H   -2.53212200112741      3.16675155893983      0.83794507754004
  H   -1.27569973759770      4.00443733262277     -0.05808113602239
  H   -0.89378403061915      3.27719785063860      1.51301813699280
