7
 
N    -1.7226509    0.0079730   -0.1514112 
H    -0.7078158    0.0066364   -0.1593021 
H    -2.0107476    0.9754270   -0.1131419 
H    -2.0042487   -0.4038018    0.7273174 
C     1.6984083   -0.1163201   -0.0693839 
H     2.3169412   -0.2074714   -0.9801747 
H     2.4301135   -0.2624432    0.7460964 
