59
 
H    -3.5078845   -2.3538456   -3.6903015 
O    -3.3215593   -1.8822191   -2.8629471 
C    -4.0456413   -0.6422993   -2.8873402 
H    -5.1063240   -0.8174911   -3.1041091 
H    -3.6388115    0.0360803   -3.6495942 
C    -3.9067381    0.0363486   -1.5443143 
H    -4.4114936    1.0098542   -1.6000041 
O    -4.5384833   -0.7557726   -0.4997530 
C    -3.8156474   -0.6350611    0.7139426 
H    -4.4656843   -0.2881942    1.5181937 
N    -3.3323627   -1.9856829    1.1191632 
C    -3.1060249   -2.9753776    0.1959560 
H    -3.3170417   -2.6974230   -0.8323488 
C    -2.6664800   -4.2104794    0.5462233 
H    -2.5023710   -4.9738423   -0.2030770 
C    -2.4182850   -4.5232576    1.9298385 
O    -2.0199878   -5.6032870    2.3848362 
N    -2.6700079   -3.4518649    2.8016943 
H    -2.5029184   -3.6172760    3.7912996 
C    -3.1147753   -2.1871097    2.4794729 
O    -3.3013416   -1.3071765    3.3199551 
C    -2.4731317    0.2529788   -1.0511878 
H    -1.8284303   -0.5869873   -1.3251505 
C    -2.6607706    0.3474526    0.4699415 
H    -1.7652252    0.0745646    1.0379687 
O    -3.1083588    1.6584149    0.8222323 
H    -2.7466138    2.2529748    0.1340685 
O    -1.9569001    1.4714211   -1.5948241 
P    -0.3650962    1.5376250   -2.0639939 
O    -0.2171504    2.9127986   -2.6402230 
O    -0.0092949    0.2962944   -2.8190195 
O     0.4349784    1.4227423   -0.6437106 
C     0.3540972    2.5025010    0.3100432 
H    -0.3384698    2.2158601    1.1075474 
H    -0.0027365    3.4171837   -0.1756761 
C     1.7348551    2.7619850    0.8744888 
H     1.6677173    3.5856170    1.5989837 
O     2.2424839    1.5825588    1.5396892 
C     3.6523837    1.4507897    1.3147780 
H     4.1780575    1.4729056    2.2691921 
N     3.9309958    0.1240666    0.7465432 
C     3.5948169   -0.1688250   -0.5553229 
H     3.1200999    0.6362033   -1.1014650 
C     3.8156724   -1.3759931   -1.1252513 
H     3.5451779   -1.5633966   -2.1556171 
C     4.4012010   -2.4375771   -0.3442008 
O     4.6566216   -3.5834450   -0.7303472 
N     4.6529065   -2.0786722    0.9887647 
H     5.0417225   -2.8002981    1.5904138 
C     4.4446693   -0.8594650    1.5985051 
O     4.6827532   -0.6661405    2.7882494 
C     2.7740990    3.1146231   -0.1928221 
H     2.5543575    2.5824180   -1.1225119 
C     4.0945810    2.6230757    0.4274418 
H     4.8372001    2.3168746   -0.3183390 
O     4.6264499    3.6381855    1.2805184 
H     4.3156538    4.4831457    0.8926462 
O     2.7593223    4.5240412   -0.4262868 
H     3.0691684    4.6868747   -1.3328526 
