59
 
H     5.2183949   -2.8152771    0.1943924 
O     4.5419901   -2.1224179    0.1309698 
C     5.1846779   -0.9113982   -0.3033269 
H     5.8815320   -1.1170546   -1.1241064 
H     5.7399464   -0.4472676    0.5228667 
C     4.1336676    0.0688013   -0.7714192 
H     4.6249236    1.0254101   -0.9917167 
O     3.5001167   -0.4178411   -1.9887828 
C     2.1311094   -0.0580394   -2.0103914 
H     1.8854426    0.4892921   -2.9213296 
N     1.3143273   -1.3072550   -2.0375764 
C     1.7835735   -2.4847666   -1.5114992 
H     2.7879007   -2.4337862   -1.1006222 
C     1.0509519   -3.6265545   -1.5136379 
H     1.4482282   -4.5413141   -1.0943707 
C    -0.2674490   -3.6373192   -2.0905498 
O    -1.0352931   -4.6025383   -2.1715295 
N    -0.6742715   -2.3842337   -2.5822848 
H    -1.5960325   -2.3369240   -3.0088790 
C     0.0408213   -1.2041383   -2.5861603 
O    -0.4118945   -0.1491143   -3.0287122 
C     2.9694745    0.3173913    0.1858474 
H     2.6788312   -0.6111528    0.6892890 
C     1.8391201    0.7743608   -0.7555710 
H     0.8432799    0.5660724   -0.3600631 
O     1.9557566    2.1531457   -1.0941029 
H     1.7551670    2.6313501   -0.2657297 
O     3.3694027    1.2808141    1.1648157 
P     2.4411772    1.4661099    2.5039626 
O     3.1741224    2.4465597    3.3672649 
O     1.9874516    0.1372616    3.0337548 
O     1.1589369    2.2072949    1.7674648 
C    -0.1436322    2.0814381    2.3721681 
H    -0.2124607    2.7311008    3.2533851 
H    -0.2976822    1.0419301    2.6814703 
C    -1.1923834    2.5121203    1.3755888 
H    -0.9893076    3.5304176    1.0223044 
O    -1.1832928    1.6188266    0.2285724 
C    -2.4962602    1.3934872   -0.2432317 
H    -2.5728315    1.6410986   -1.3031502 
N    -2.8065148   -0.0666808   -0.1147891 
C    -2.0275757   -0.9250267    0.6165271 
H    -1.1593210   -0.4662279    1.0714491 
C    -2.3134190   -2.2439326    0.7483379 
H    -1.6735504   -2.8945206    1.3288451 
C    -3.4835204   -2.7954595    0.1112013 
O    -3.8647824   -3.9693304    0.1536038 
N    -4.2214015   -1.8473670   -0.6182998 
H    -5.0595270   -2.1805450   -1.0887152 
C    -3.9534675   -0.5039513   -0.7717046 
O    -4.6662504    0.2567699   -1.4246162 
C    -2.6232157    2.4286052    1.9097442 
H    -2.7453016    1.5578335    2.5639167 
C    -3.4407820    2.2453021    0.6155364 
H    -4.4048858    1.7548589    0.7817198 
O    -3.6092787    3.5058971   -0.0294703 
H    -3.6847055    4.1611283    0.6938406 
O    -2.9490919    3.6317148    2.6028096 
H    -3.6809415    3.4450415    3.2146903 
