          11
 
   C          0.00000000      1.15366079      0.20772743
   C          0.00000000      0.70006192     -1.11009727
   C          0.00000000     -0.70006192     -1.11009727
   C          0.00000000     -1.15366079      0.20772743
   C          0.00000000      0.00000000      1.13580020
   H          0.00000000      2.19207431      0.51692222
   H          0.00000000      1.33090392     -1.98945097
   H          0.00000000     -1.33090392     -1.98945097
   H          0.00000000     -2.19207431      0.51692222
   H         -0.87179059      0.00000000      1.80699849
   H          0.87179059      0.00000000      1.80699849
