32
Coordinates from ORCA-job xar
  N   0.57780728439085      0.62031600106638      1.04483574412591
  C   0.79494522871706     -0.73109033460798      0.53655093323398
  C   2.26138781594518     -1.10987912803242      0.30928830987218
  O   2.69593564430981     -2.16542376968663      0.76139474588656
  C   -0.04209349505886     -1.03203988403063     -0.72031803536671
  C   -1.48800442645579     -0.70701696844073     -0.48631130105174
  C   -2.04690084228127      0.46817234522631     -0.99654880822611
  C   -2.28596251632742     -1.54405612974927      0.30005032725007
  C   -3.37332106334632      0.80117708363419     -0.72525805695940
  C   -3.61114573244182     -1.21495669015195      0.57401040334302
  C   -4.15744105116544     -0.03774053774648      0.06402740832209
  H   0.15599010078700      0.68784726991897      1.95489860126410
  H   0.46417632600606     -1.39845940887200      1.32972548847462
  H   0.08949318800733     -2.09325431632381     -0.93893154889124
  H   0.34325851273032     -0.46109349596730     -1.56224032217741
  H   -1.43633279166671      1.11802682868832     -1.61141940424442
  H   -1.86758531385702     -2.46443200683403      0.69115464165093
  H   -3.79430758549389      1.71023519505808     -1.13385289416543
  H   -4.21740186367434     -1.87685120519733      1.17769050644931
  H   -5.18711682922595      0.21798340542463      0.27320927085195
  N   2.96748394930968     -0.24169589749092     -0.44394516920585
  H   2.48052077622702      0.57978664615423     -0.78680487575579
  C   4.35244182250430     -0.48167184904820     -0.78372048825823
  H   4.50013225844165     -0.40001502943844     -1.85862103027885
  H   5.01256222463120      0.22570287045099     -0.28323432094388
  H   4.60379732879207     -1.48731814266106     -0.46107674175627
  C   0.61681400601169      1.75872073368668      0.31327034728453
  O   1.06896108205040      1.80680991900457     -0.83306972061967
  C   0.03519199991380      2.97430498706296      0.98805497897668
  H   0.09580469032604      2.91964633871698      2.07268782691677
  H   -1.01399910299517      3.05168457773004      0.70287920125183
  H   0.55599837488853      3.85785659245583      0.63359498274651
