          16
 
   H         -1.96835664      1.06706638      1.34307148
   C         -1.11416533      1.01457636      0.68421724
   C          0.22922214      0.72932626      1.09945039
   C         -1.11416533      1.01457636     -0.68421724
   H          1.98243777      0.70630025      0.00000000
   N          1.03477843      1.05782238      0.00000000
   C          0.22922214     -1.33411348      0.70659725
   H          0.61593228      0.86963631      2.10018875
   C          0.22922214     -1.33411348     -0.70659725
   H         -1.96835664      1.06706638     -1.34307148
   C          0.22922214      0.72932626     -1.09945039
   H          0.61593228      0.86963631     -2.10018875
   H         -0.65530617     -1.66353059     -1.23801644
   H         -0.65530617     -1.66353059      1.23801644
   H          1.15484347     -1.56502256      1.22577544
   H          1.15484347     -1.56502256     -1.22577544
