11

   C     0.000000    1.135740    0.717503
   C     0.000000    1.190661   -0.668108
   C     0.000000    0.000000   -1.374944
   C     0.000000   -1.190661   -0.668108
   C     0.000000   -1.135740    0.717503
   N     0.000000    0.000000    1.408992
   H     0.000000    2.049911    1.301722
   H     0.000000    2.145889   -1.175862
   H     0.000000    0.000000   -2.457735
   H     0.000000   -2.145889   -1.175862
   H     0.000000   -2.049911    1.301722                                            
