28
Coordinates from ORCA-job xbi
  N   1.83378224492158      0.42400676675133      0.16099648877135
  H   2.14638949118206      1.30386077790156      0.54200343570103
  C   0.40688544095025      0.25232811609212      0.05796858371488
  H   0.18653367062807     -0.22153122441856     -0.89874701060688
  C   -0.09742370849912     -0.64404831840514      1.19909731089471
  C   -0.21191310669785      1.64370703840044      0.12424595017201
  H   0.12311312420174     -0.14811308614671      2.14504180302517
  H   0.48056290681242     -1.56662660669331      1.15364106081578
  C   -1.59531129289658     -0.97489840851066      1.14620029819329
  O   0.35726270643589      2.55491286832682      0.72441840873664
  H   -1.83868224417005     -1.66401162536884      1.95133822429033
  H   -2.19171408517076     -0.07260408492084      1.25540762375312
  C   -1.93940373211630     -1.60584153940898     -0.17029146966364
  O   -1.79066759515253     -2.94041447969519     -0.15109617522967
  O   -2.27080510558542     -1.00047403289799     -1.17344881940382
  C   2.68721529655186     -0.54332881977932     -0.25551756099251
  C   4.15460519374429     -0.22319434685767     -0.11064162524165
  O   2.28961689852290     -1.60773137200375     -0.72143533467140
  H   4.61663461123247     -0.98675554991640      0.51044255976738
  H   4.33748042216455      0.75607630691442      0.32426311846724
  H   4.61726930437886     -0.27350565941989     -1.09342573478510
  N   -1.40600433068925      1.76043196313028     -0.49027069112822
  C   -2.16282974379935      2.99413377763985     -0.47121175631605
  H   -1.79212021988619      0.93760633171910     -0.93691818677763
  H   -2.30723873622817      3.37509434751707     -1.48027238385692
  H   -3.13643098495628      2.84538142564762     -0.00746382316773
  H   -1.59753424170272      3.71888519038410      0.10584117267696
  H   -1.95238118417637     -3.24355175598146     -1.05808546713867
