          33
 
   N         -1.03543439      2.65935039     -0.07673903
   C          0.24243661      2.18062139     -0.28206103
   C          0.23724061      0.80303939     -0.25375503
   C         -1.12485339      0.41382939     -0.01594503
   C         -1.75860139     -0.83565061      0.11738497
   C         -3.12140239     -0.86095361      0.35776697
   C         -3.87426639      0.32936139      0.46786297
   C         -3.27245139      1.57086739      0.33548097
   C         -1.89409539      1.59816939      0.09079597
   H         -1.29099039      3.62901739     -0.04528303
   H          1.05708661      2.86888939     -0.43504603
   H         -1.21086339     -1.76664561      0.05096197
   H         -4.93251739      0.25361939      0.67871397
   H         -3.85100039      2.48081639      0.42936097
   O         -3.75519939     -2.07792461      0.53696597
   C         -4.47167439     -2.49383461     -0.62270903
   H         -3.79472639     -2.62246061     -1.47073503
   H         -5.24447839     -1.77017661     -0.89157903
   H         -4.93624939     -3.44563561     -0.37887403
   C          1.39648161     -0.13067861     -0.42934503
   C          2.72425361      0.59095139     -0.66522003
   N          3.84713961     -0.31210261     -0.83456303
   C          4.62294061     -0.85271361      0.15739797
   C          4.47000461     -0.25175961      1.54094697
   H          1.20807361     -0.80200561     -1.27281703
   H          1.49379561     -0.77173761      0.45162497
   H          2.93599361      1.26270439      0.16505997
   H          2.65056561      1.21003939     -1.56092903
   H          3.93948161     -0.79012761     -1.71739403
   O          5.41998061     -1.74871661     -0.07764403
   H          5.12030461     -0.80097061      2.21358797
   H          3.44241561     -0.31615461      1.89759597
   H          4.76060961      0.79897239      1.53912997
