          34
 
   C          0.57563330      0.50768612      0.48442536
   C          2.65314131      1.39910832     -0.62890019
   C          1.24713741      2.92211359      0.78981308
   C          0.08212433      1.94332850      0.66778801
   C          2.16473185      2.82976148     -0.42530894
   C          1.47707047      0.43214176     -0.74866728
   C         -0.57563330     -0.50768612      0.48442536
   C         -0.08212433     -1.94332850      0.66778801
   C         -1.24713741     -2.92211359      0.78981308
   C         -2.16473185     -2.82976148     -0.42530894
   C         -2.65314131     -1.39910832     -0.62890019
   C         -1.47707047     -0.43214176     -0.74866728
   H          1.19976392      0.27041118      1.35692041
   H          3.28482592      1.33639929     -1.51654339
   H          3.27300576      1.10602025      0.22361461
   H          1.82050015      2.68508534      1.69088291
   H          0.87543270      3.94112085      0.90947621
   H         -0.53236416      2.22979231     -0.19081792
   H         -0.55820420      2.00178382      1.55148624
   H          1.61300252      3.14816472     -1.31491028
   H          3.01101949      3.50987044     -0.31652434
   H          1.84312183     -0.58549027     -0.89555376
   H          0.89544846      0.69484179     -1.63718074
   H         -1.19976392     -0.27041118      1.35692041
   H          0.53236416     -2.22979231     -0.19081792
   H          0.55820420     -2.00178382      1.55148624
   H         -1.82050015     -2.68508534      1.69088291
   H         -0.87543270     -3.94112085      0.90947621
   H         -1.61300252     -3.14816472     -1.31491028
   H         -3.01101949     -3.50987044     -0.31652434
   H         -3.27300576     -1.10602025      0.22361461
   H         -3.28482592     -1.33639929     -1.51654339
   H         -1.84312183      0.58549027     -0.89555376
   H         -0.89544846     -0.69484179     -1.63718074
