          18
 
   B         -1.35427300      0.78189000      0.24025300
   N          0.00000000      1.47634500     -0.19433900
   B          1.35427300      0.78189000      0.24025300
   N          1.27855200     -0.73817200     -0.19433900
   B          0.00000000     -1.56378000      0.24025300
   N         -1.27855200     -0.73817200     -0.19433900
   H         -2.28244500      1.31777000     -0.33230500
   H         -1.44125500      0.83210900      1.44215100
   H          0.00000000      1.67104000     -1.19124000
   H          0.00000000      2.39284800      0.24050200
   H          1.44125500      0.83210900      1.44215100
   H          2.28244500      1.31777000     -0.33230500
   H          1.44716300     -0.83552000     -1.19124000
   H          2.07226700     -1.19642400      0.24050200
   H          0.00000000     -1.66421800      1.44215100
   H          0.00000000     -2.63554100     -0.33230500
   H         -1.44716300     -0.83552000     -1.19124000
   H         -2.07226700     -1.19642400      0.24050200
