          15
 
   C          0.82811623     -0.21159071      1.20475236
   S          1.44229845     -1.34965561      0.00000000
   C         -1.24908468     -0.55021654      0.70215925
   C          0.92063196      1.10965997      0.68648128
   C          0.82811623     -0.21159071     -1.20475236
   C         -1.24908468     -0.55021654     -0.70215925
   C          0.92063196      1.10965997     -0.68648128
   H          0.95673695     -0.45976415      2.25014901
   H         -1.31253032     -1.49358802      1.23028606
   H         -1.67759043      0.29044163      1.23347846
   H          0.81257107      1.98988563      1.30728665
   H          0.95673695     -0.45976415     -2.25014901
   H         -1.31253032     -1.49358802     -1.23028606
   H         -1.67759043      0.29044163     -1.23347846
   H          0.81257107      1.98988563     -1.30728665
