          40
 
   C          0.64555123     -0.40756315      1.94603569
   C         -0.64555123      0.40756315      1.94603569
   C          1.90524468      0.45554816      1.94603469
   C         -1.90524468     -0.45554816      1.94603469
   C          3.18887214     -0.37045913      1.94603469
   C         -3.18887214      0.37045913      1.94603469
   H          0.65879123     -1.06667838      2.82483101
   H          0.65879123     -1.06667738      1.06723938
   H         -0.65879123      1.06667838      2.82483101
   H         -0.65879123      1.06667738      1.06723938
   H          1.89040967      1.11346240      1.06802638
   H          1.89040867      1.11346340      2.82404401
   H         -1.89040967     -1.11346240      1.06802638
   H         -1.89040867     -1.11346340      2.82404401
   H          4.07689745      0.26853010      1.94603469
   H          3.23778715     -1.01383036      1.06198638
   H          3.23778715     -1.01383036      2.83008201
   H         -4.07689745     -0.26853010      1.94603469
   H         -3.23778715      1.01383036      1.06198638
   H         -3.23778715      1.01383036      2.83008201
   C          0.64555123      0.40756315     -1.94603569
   C         -0.64555123     -0.40756315     -1.94603569
   C          1.90524468     -0.45554816     -1.94603469
   C         -1.90524468      0.45554816     -1.94603469
   C          3.18887214      0.37045913     -1.94603469
   C         -3.18887214     -0.37045913     -1.94603469
   H          0.65879123      1.06667838     -2.82483101
   H          0.65879123      1.06667738     -1.06723938
   H         -0.65879123     -1.06667838     -2.82483101
   H         -0.65879123     -1.06667738     -1.06723938
   H          1.89040967     -1.11346240     -1.06802638
   H          1.89040867     -1.11346340     -2.82404401
   H         -1.89040967      1.11346240     -1.06802638
   H         -1.89040867      1.11346340     -2.82404401
   H          4.07689745     -0.26853010     -1.94603469
   H          3.23778715      1.01383036     -1.06198638
   H          3.23778715      1.01383036     -2.83008201
   H         -4.07689745      0.26853010     -1.94603469
   H         -3.23778715     -1.01383036     -1.06198638
   H         -3.23778715     -1.01383036     -2.83008201
