          41
 
   C         -6.80237537     -0.71541408      0.64963345
   C         -6.24094307      0.41983891     -0.23228389
   C         -6.57518037      0.15847364     -1.71719063
   C         -4.74949863      0.61200587     -0.02397969
   C         -3.82358928     -0.33625816     -0.25120067
   C         -2.37950485     -0.20776635     -0.03980897
   C         -1.78421401      0.61282228      0.84456119
   C         -0.30242889      0.77896388      1.04958797
   C          0.60377014     -0.08740778      0.16759325
   C          2.09126327      0.14934809      0.45267982
   C          4.45430719     -0.53082084     -0.11704235
   C          5.36460267     -0.04665464     -0.97633795
   C          6.79850218      0.17848024     -0.68720604
   O          7.58637149      0.62188812     -1.50408971
   O          7.15186448     -0.15969729      0.58972190
   C          8.54591807      0.04272947      0.91883391
   C          3.00421117     -0.72129564     -0.43806261
   H         -7.88878940     -0.80852343      0.51337348
   H         -6.33830327     -1.67230205      0.37613347
   H         -6.59625161     -0.53008637      1.71142705
   H         -6.74070024      1.35299372      0.06280057
   H         -6.10400872     -0.77542543     -2.05144115
   H         -6.20663164      0.97191163     -2.35484465
   H         -7.66109966      0.06587504     -1.85718160
   H         -4.41788719      1.59409302      0.31841655
   H         -4.15686853     -1.29736917     -0.65140624
   H         -1.75331658     -0.86098538     -0.64993001
   H         -2.41755491      1.22178235      1.49408305
   H         -0.04283436      1.84068778      0.89421021
   H         -0.06651319      0.58282523      2.10968603
   H          0.39569073      0.12365712     -0.89147770
   H          0.36667299     -1.14942335      0.32873185
   H          2.33666069      1.20885318      0.29100111
   H          2.30229503     -0.06641289      1.51085299
   H          4.76890172     -0.78439930      0.89642716
   H          5.08117225      0.22072427     -1.99347953
   H          8.64527720     -0.27539396      1.95988749
   H          9.18578597     -0.56069297      0.26386433
   H          8.81680819      1.09936549      0.80627581
   H          2.81524237     -0.49342972     -1.49620007
   H          2.73317596     -1.77756052     -0.27661918
