          12
 
   C         -1.17494769     -1.40687730      0.31756583
   C         -0.76590356     -0.32275382     -0.46267313
   C         -0.19678921      0.88092407      0.08368021
   C          1.35640520      0.55742895     -0.05496060
   H         -1.75229133     -2.21725166     -0.11643980
   H         -0.94671647     -1.44913530      1.37895991
   H         -0.82253756     -0.41909472     -1.54627101
   H         -0.43077753      1.04926749      1.13397269
   H         -0.40058263      1.76208524     -0.52414073
   H          1.64954842     -0.30420331      0.54188285
   H          1.83943884      1.45435852      0.34312093
   H          1.64515352      0.41525184     -1.09469717
