          15
 
   C         -0.84648247      0.47214710     -0.75683532
   C          0.40965503      0.22698422     -1.40671417
   C          1.53548658     -0.15991743     -0.69949158
   C          1.53548658     -0.15991743      0.69949158
   C          0.40965503      0.22698422      1.40671417
   C         -0.84648247      0.47214710      0.75683532
   C         -1.44635986     -0.71101959      0.00000000
   H         -1.57643854      1.08938583     -1.26680180
   H          0.46600083      0.34134957     -2.48443016
   H          2.44496176     -0.40339080     -1.23552792
   H          2.44496176     -0.40339080      1.23552792
   H          0.46600083      0.34134957      2.48443016
   H         -1.57643854      1.08938583      1.26680180
   H         -2.52548397     -0.78092488      0.00000000
   H         -0.89452253     -1.64117252      0.00000000
