          16
 
   C         -0.80894004      0.73922315     -1.20710838
   C         -1.49580351      0.61989010      0.00000000
   C         -0.80894004      0.73922315      1.20710838
   C          0.56456840      0.97798453      1.20707394
   C          1.25138507      1.09710140      0.00000000
   C          0.56456840      0.97798453     -1.20707394
   H         -1.34160873      0.64397620     -2.14329009
   H         -2.55988026      0.42858264      0.00000000
   H         -1.34160873      0.64397620      2.14329009
   H          1.09714222      1.07083326      2.14369583
   H          2.31670063      1.28297601      0.00000000
   H          1.09714222      1.07083326     -2.14369583
   H          0.68989105     -2.92260428     -0.80607321
   H          0.68989105     -2.92260428      0.80607321
   H         -0.02524204     -1.72159613      0.00000000
   N          0.11073430     -2.72577975      0.00000000
