33
 
  C   2.98066801152556      1.80192022995802     -0.00001811999972
  B   2.78684865316750      0.12880464746971      0.00001115087042
  N   1.39682619632529     -0.02337195826174      0.00003427444114
  B   0.71565960513396      1.20533518667253      0.00001602685602
  N   1.54589605113625      2.33860587747630     -0.00000065701573
  B   0.68662053215254     -1.22400867532824      0.00001507109963
  N   1.25233049347114     -2.50966931780873      0.00002524037919
  B   2.69388522263866     -2.47322516990098      0.00001486036252
  N   3.43045904902224     -1.17365298459494      0.00000633057858
  N   -0.71907684748945     -1.20094329223306     -0.00002940159647
  B   -1.28348546215952     -2.48003395322246     -0.00002235166993
  C   0.06831484351544     -3.48401174552771      0.00000787107152
  N   -0.67880186529618      1.21872404497512      0.00000193427047
  B   -1.50273023719544      2.34796368061633      0.00000660755928
  N   -0.69686683736634      3.55734313498705      0.00000997649481
  B   0.79586446428800      3.56889624227386      0.00000131056224
  B   -1.40336309708811      0.01451256003280     -0.00002285993136
  N   -2.79961403281073      0.16999797982432     -0.00002349404619
  C   -3.04809111209544      1.68396621776092      0.00000620064163
  N   -2.73419228876359     -2.38354306860076     -0.00002740730180
  B   -3.49001421351041     -1.09483459334839     -0.00001672025000
  H   1.32677036599760      4.63737775602209     -0.00000176928395
  H   -1.11604995949233      4.47334572043926      0.00001807383365
  H   4.43319741031025     -1.27115377778558     -0.00000441998764
  H   3.35576749916570     -3.46592067631184      0.00001001768116
  H   -3.32137945363613     -3.20205371521646     -0.00001854198119
  H   -4.68060583768263     -1.16855278188674      0.00000066367110
  H   -3.63840837430402      1.96022028747289      0.87520382054519
  H   -3.63843582383180      1.96025367699941     -0.87516136316950
  H   3.51406405988920      2.17699472986756     -0.87504214198516
  H   3.51410210525714      2.17702606261770      0.87496941583201
  H   0.12694102722237     -4.13316407276308     -0.87529598561492
  H   0.12690385250330     -4.13314925267516      0.87532538708297
