          35
 
   C         -1.51031036      0.62606102      0.26497409
   C         -2.64798819      0.70649828      1.08994950
   C         -3.84604650      0.11096204      0.69986017
   C         -3.93599144     -0.57865550     -0.51658440
   C         -2.80594158     -0.65830749     -1.33319472
   C         -1.59594001     -0.06330214     -0.95652067
   O         -0.39811714      1.24209648      0.76974349
   C          0.89290411      1.24008463      0.07205808
   C          1.39651051     -0.17414214     -0.28877993
   C          1.22123938     -1.25197101      0.50555612
   C          0.55528813     -1.24312796      1.86529034
   C          1.65656454     -2.65293150      0.11652313
   C          2.16307872     -0.23698385     -1.59369961
   C          0.75466875      2.19596032     -1.13248587
   C          1.85638107      1.87764875      1.08582267
   H         -2.56710254      1.23975785      2.03441963
   H         -4.71466480      0.18480745      1.35202077
   H         -4.87057259     -1.04502814     -0.81997020
   H         -2.85571296     -1.19117839     -2.28139417
   H         -0.73197617     -0.15867720     -1.60121404
   H         -0.46062163     -1.65992454      1.78725777
   H          0.47045512     -0.25399866      2.31364492
   H          1.11759420     -1.89878037      2.54682182
   H          1.78569774     -2.79797708     -0.95987984
   H          2.60065802     -2.92229318      0.61659084
   H          0.90256427     -3.37545763      0.45957536
   H          2.68118472     -1.18755338     -1.73459098
   H          2.92611458      0.55377787     -1.62459127
   H          1.50889411     -0.06827536     -2.46284530
   H          0.09738608      1.79593101     -1.90891224
   H          1.73237870      2.40894411     -1.57661138
   H          0.32754356      3.13560478     -0.76587704
   H          1.93227819      1.26269414      1.98707821
   H          1.51001166      2.88270033      1.35826768
   H          2.85158978      1.95503646      0.63169710
