9
 
  C   -1.10945416545954     -0.08792101937951     -0.08400821928685
  O   0.07032183607769      0.60924567607926      0.24765640205154
  C   1.23884107792212     -0.13666128914199     -0.00597520869361
  H   -1.94856188018356      0.55983585212066      0.16218640095003
  H   -1.14825112584013     -0.33319268053463     -1.15420716209030
  H   -1.19840018577541     -1.02152922518843      0.48579228504927
  H   2.08610111441292      0.47954047509783      0.28875360385842
  H   1.33396905213006     -0.39116033625816     -1.07028076112373
  H   1.25443427671585     -1.06815745279504      0.57408265928525
