          11
 
   C          0.00000000      0.00000000     -1.12416999
   C          0.00000000      1.17942683     -0.18959511
   C          0.00000000     -1.17942683     -0.18959511
   C          0.00000000      0.73434652      1.08066238
   C          0.00000000     -0.73434652      1.08066238
   H          0.87715879      0.00000000     -1.78568428
   H         -0.87715879      0.00000000     -1.78568428
   H          0.00000000      2.21027975     -0.51635501
   H          0.00000000     -2.21027975     -0.51635501
   H          0.00000000      1.34728622      1.97305702
   H          0.00000000     -1.34728622      1.97305702
