          31
          1
W       0.000000       2.040000       6.120000 FFF      -7.909659       0.000000      -0.220899      -0.220899       2.467602       1.949590       1.949590      -0.430847       0.000000       0.000000
W       2.040000       0.000000       6.120000 FFF      -7.909659      -0.220899       0.000000      -0.220899       1.949590       2.467602       1.949590       0.000000      -0.430847       0.000000
W       0.000000       0.000000       0.000000 FFF      -8.333540       0.000000       0.000000       0.000000       1.759343       1.759343       1.796104       0.000000       0.000000       0.000000
W       0.000000       2.040000       2.040000 FFF      -7.909659       0.000000      -0.220899       0.220899       2.467601       1.949590       1.949590       0.430847       0.000000       0.000000
W       0.000000       4.080000       4.080000 FFF      -8.333540       0.000000       0.000000       0.000000       1.759343       1.796104       1.759343       0.000000       0.000000       0.000000
W       0.000000       6.120000       6.120000 FFF      -7.909659       0.000000       0.220899      -0.220899       2.467602       1.949591       1.949591       0.430848       0.000000       0.000000
W       2.040000       0.000000       2.040000 FFF      -7.909659      -0.220899       0.000000       0.220899       1.949590       2.467601       1.949590       0.000000       0.430847       0.000000
W       2.040000       2.040000       4.080000 FFF      -7.909659      -0.220899      -0.220899       0.000000       1.949590       1.949590       2.467601       0.000000       0.000000      -0.430847
W       2.040000       4.080000       6.120000 FFF      -8.268727      -0.018014       0.000000      -0.018014       1.750710       1.529159       1.750710       0.000000      -0.224186       0.000000
W       4.080000       0.000000       4.080000 FFF      -8.333540       0.000000       0.000000       0.000000       1.796104       1.759343       1.759343       0.000000       0.000000       0.000000
W       4.080000       2.040000       6.120000 FFF      -8.268727       0.000000      -0.018014      -0.018014       1.529159       1.750710       1.750710      -0.224186       0.000000       0.000000
W       6.120000       0.000000       6.120000 FFF      -7.909659       0.220899       0.000000      -0.220899       1.949591       2.467602       1.949591       0.000000       0.430848       0.000000
W       0.000000       4.080000       0.000000 FFF      -8.298036       0.000000       0.000000       0.000000       1.479106       1.877406       1.877406       0.000000       0.000000       0.000000
W       0.000000       6.120000       2.040000 FFF      -7.909659       0.000000       0.220899       0.220899       2.467602       1.949590       1.949590      -0.430847       0.000000       0.000000
W       2.040000       2.040000       0.000000 FFF      -8.268727      -0.018014      -0.018014       0.000000       1.750711       1.750711       1.529159       0.000000       0.000000      -0.224186
W       2.040000       4.080000       2.040000 FFF      -8.268727      -0.018014       0.000000       0.018014       1.750710       1.529159       1.750710       0.000000       0.224186       0.000000
W       2.040000       6.120000       4.080000 FFF      -7.909659      -0.220899       0.220899       0.000000       1.949590       1.949590       2.467601       0.000000       0.000000       0.430847
W       4.080000       0.000000       0.000000 FFF      -8.298036       0.000000       0.000000       0.000000       1.877406       1.479106       1.877406       0.000000       0.000000       0.000000
W       4.080000       2.040000       2.040000 FFF      -8.268727       0.000000      -0.018014       0.018014       1.529159       1.750710       1.750710       0.224186       0.000000       0.000000
W       4.080000       4.080000       4.080000 FFF      -8.298036       0.000000       0.000000       0.000000       1.877406       1.877406       1.479106       0.000000       0.000000       0.000000
W       4.080000       6.120000       6.120000 FFF      -8.268727       0.000000       0.018014      -0.018015       1.529159       1.750711       1.750711       0.224187       0.000000       0.000000
W       6.120000       0.000000       2.040000 FFF      -7.909659       0.220899       0.000000       0.220899       1.949590       2.467602       1.949590       0.000000      -0.430847       0.000000
W       6.120000       2.040000       4.080000 FFF      -7.909659       0.220899      -0.220899       0.000000       1.949590       1.949590       2.467601       0.000000       0.000000       0.430847
W       6.120000       4.080000       6.120000 FFF      -8.268727       0.018014       0.000000      -0.018015       1.750711       1.529159       1.750711       0.000000       0.224187       0.000000
W       2.040000       6.120000       0.000000 FFF      -8.268727      -0.018014       0.018015       0.000000       1.750710       1.750710       1.529159       0.000000       0.000000       0.224186
W       4.080000       4.080000       0.000000 FFF      -8.250658       0.000000       0.000000       0.000000       1.550657       1.550657       1.550657       0.000000       0.000000       0.000000
W       4.080000       6.120000       2.040000 FFF      -8.268727       0.000000       0.018014       0.018014       1.529159       1.750710       1.750710      -0.224186       0.000000       0.000000
W       6.120000       2.040000       0.000000 FFF      -8.268727       0.018015      -0.018014       0.000000       1.750710       1.750710       1.529159       0.000000       0.000000       0.224186
W       6.120000       4.080000       2.040000 FFF      -8.268727       0.018014       0.000000       0.018014       1.750710       1.529159       1.750710       0.000000      -0.224186       0.000000
W       6.120000       6.120000       4.080000 FFF      -7.909659       0.220899       0.220899       0.000000       1.949590       1.949590       2.467602       0.000000       0.000000      -0.430847
W       6.120000       6.120000       0.000000 FFF      -8.268727       0.018014       0.018014       0.000000       1.750711       1.750711       1.529159       0.000000       0.000000      -0.224186
          31
          2
W       8.160000       2.035582       6.115582 FFF      -7.914515       0.000000      -0.171054      -0.171054       2.437702       1.940744       1.940744      -0.406648       0.000000       0.000000
W       2.035582       8.160000       6.115582 FFF      -7.914515      -0.171054       0.000000      -0.171054       1.940744       2.437702       1.940744       0.000000      -0.406648       0.000000
W       8.160000       8.160000       8.160000 FFF      -8.333045       0.000000       0.000000       0.000000       1.749641       1.749641       1.807506       0.000000       0.000000       0.000000
W       0.000000       2.035582       2.044418 FFF      -7.914515       0.000000      -0.171054       0.171054       2.437703       1.940744       1.940744       0.406647       0.000000       0.000000
W       8.160000       4.080000       4.080000 FFF      -8.333045       0.000000       0.000000       0.000000       1.749642       1.807506       1.749642       0.000000       0.000000       0.000000
W       8.160000       6.124418       6.115582 FFF      -7.914515       0.000000       0.171054      -0.171054       2.437702       1.940744       1.940744       0.406648       0.000000       0.000000
W       2.035582       0.000000       2.044418 FFF      -7.914515      -0.171054       0.000000       0.171054       1.940744       2.437702       1.940744       0.000000       0.406648       0.000000
W       2.035582       2.035582       4.080000 FFF      -7.914515      -0.171054      -0.171054       0.000000       1.940744       1.940745       2.437702       0.000000       0.000000      -0.406647
W       2.039640       4.080000       6.119640 FFF      -8.267105      -0.042520       0.000000      -0.042520       1.789763       1.569963       1.789762       0.000000      -0.223179       0.000000
W       4.080000       8.160000       4.080000 FFF      -8.333045       0.000000       0.000000       0.000000       1.807506       1.749641       1.749641       0.000000       0.000000       0.000000
W       4.080000       2.039640       6.119640 FFF      -8.267105       0.000000      -0.042520      -0.042520       1.569963       1.789763       1.789762      -0.223179       0.000000       0.000000
W       6.124418       8.160000       6.115582 FFF      -7.914515       0.171054       0.000000      -0.171054       1.940744       2.437702       1.940745       0.000000       0.406648       0.000000
W       8.160000       4.080000       8.160000 FFF      -8.292371       0.000000       0.000000       0.000000       1.547932       1.937911       1.937911       0.000000       0.000000       0.000000
W       8.160000       6.124418       2.044418 FFF      -7.914515       0.000000       0.171054       0.171054       2.437702       1.940745       1.940745      -0.406648       0.000000       0.000000
W       2.039640       2.039640       0.000000 FFF      -8.267105      -0.042520      -0.042520       0.000000       1.789763       1.789762       1.569963       0.000000       0.000000      -0.223179
W       2.039640       4.080000       2.040360 FFF      -8.267105      -0.042520       0.000000       0.042520       1.789763       1.569963       1.789763       0.000000       0.223179       0.000000
W       2.035582       6.124418       4.080000 FFF      -7.914515      -0.171054       0.171054       0.000000       1.940745       1.940745       2.437702       0.000000       0.000000       0.406648
W       4.080000       8.160000       8.160000 FFF      -8.292371       0.000000       0.000000       0.000000       1.937911       1.547932       1.937911       0.000000       0.000000       0.000000
W       4.080000       2.039640       2.040360 FFF      -8.267105       0.000000      -0.042520       0.042520       1.569963       1.789763       1.789763       0.223179       0.000000       0.000000
W       4.080000       4.080000       4.080000 FFF      -8.292371       0.000000       0.000000       0.000000       1.937911       1.937911       1.547932       0.000000       0.000000       0.000000
W       4.080000       6.120360       6.119640 FFF      -8.267105       0.000000       0.042520      -0.042520       1.569962       1.789762       1.789762       0.223179       0.000000       0.000000
W       6.124418       8.160000       2.044418 FFF      -7.914515       0.171054       0.000000       0.171054       1.940745       2.437702       1.940745       0.000000      -0.406647       0.000000
W       6.124418       2.035582       4.080000 FFF      -7.914515       0.171054      -0.171053       0.000000       1.940744       1.940745       2.437702       0.000000       0.000000       0.406648
W       6.120360       4.080000       6.119640 FFF      -8.267105       0.042520       0.000000      -0.042520       1.789762       1.569963       1.789762       0.000000       0.223180       0.000000
W       2.039640       6.120360       8.160000 FFF      -8.267105      -0.042520       0.042520       0.000000       1.789762       1.789762       1.569963       0.000000       0.000000       0.223179
W       4.080000       4.080000       8.160000 FFF      -8.251387       0.000000       0.000000       0.000000       1.567186       1.567186       1.567187       0.000000       0.000000       0.000000
W       4.080000       6.120360       2.040360 FFF      -8.267105       0.000000       0.042520       0.042520       1.569962       1.789763       1.789762      -0.223179       0.000000       0.000000
W       6.120360       2.039640       8.160000 FFF      -8.267105       0.042520      -0.042520       0.000000       1.789763       1.789762       1.569963       0.000000       0.000000       0.223179
W       6.120360       4.080000       2.040360 FFF      -8.267105       0.042520       0.000000       0.042520       1.789763       1.569962       1.789762       0.000000      -0.223179       0.000000
W       6.124418       6.124418       4.080000 FFF      -7.914515       0.171054       0.171054       0.000000       1.940744       1.940744       2.437702       0.000000       0.000000      -0.406648
W       6.120360       6.120360       8.160000 FFF      -8.267105       0.042520       0.042520       0.000000       1.789762       1.789762       1.569963       0.000000       0.000000      -0.223180
          31
          3
W       0.000000       2.029952       6.109952 FFF      -7.920661       0.000000      -0.110295      -0.110295       2.391776       1.922153       1.922153      -0.376263       0.000000       0.000000
W       2.029952       0.000000       6.109952 FFF      -7.920661      -0.110295       0.000000      -0.110295       1.922153       2.391776       1.922153       0.000000      -0.376262       0.000000
W       8.160000       8.160000       8.160000 FFF      -8.332394       0.000000       0.000000       0.000000       1.728406       1.728406       1.813861       0.000000       0.000000       0.000000
W       0.000000       2.029952       2.050048 FFF      -7.920661       0.000000      -0.110295       0.110295       2.391775       1.922153       1.922153       0.376263       0.000000       0.000000
W       0.000000       4.080000       4.080000 FFF      -8.332394       0.000000       0.000000       0.000000       1.728406       1.813861       1.728406       0.000000       0.000000       0.000000
W       8.160000       6.130048       6.109952 FFF      -7.920661       0.000000       0.110295      -0.110295       2.391776       1.922153       1.922153       0.376263       0.000000       0.000000
W       2.029952       0.000000       2.050048 FFF      -7.920661      -0.110295       0.000000       0.110295       1.922153       2.391776       1.922153       0.000000       0.376263       0.000000
W       2.029952       2.029952       4.080000 FFF      -7.920661      -0.110295      -0.110295       0.000000       1.922153       1.922153       2.391775       0.000000       0.000000      -0.376263
W       2.038609       4.080000       6.118609 FFF      -8.264719      -0.062515       0.000000      -0.062515       1.843526       1.626058       1.843526       0.000000      -0.221873       0.000000
W       4.080000       8.160000       4.080000 FFF      -8.332394       0.000000       0.000000       0.000000       1.813861       1.728406       1.728406       0.000000       0.000000       0.000000
W       4.080000       2.038609       6.118609 FFF      -8.264719       0.000000      -0.062516      -0.062516       1.626058       1.843526       1.843526      -0.221873       0.000000       0.000000
W       6.130048       8.160000       6.109952 FFF      -7.920661       0.110295       0.000000      -0.110295       1.922152       2.391776       1.922153       0.000000       0.376263       0.000000
W       8.160000       4.080000       0.000000 FFF      -8.285011       0.000000       0.000000      -0.000001       1.634668       2.014891       2.014891       0.000000       0.000000       0.000000
W       8.160000       6.130048       2.050048 FFF      -7.920661       0.000000       0.110295       0.110295       2.391776       1.922153       1.922153      -0.376262       0.000000       0.000000
W       2.038609       2.038609       0.000000 FFF      -8.264720      -0.062516      -0.062516       0.000000       1.843526       1.843526       1.626058       0.000000       0.000000      -0.221873
W       2.038609       4.080000       2.041391 FFF      -8.264720      -0.062516       0.000000       0.062516       1.843526       1.626058       1.843526       0.000000       0.221873       0.000000
W       2.029952       6.130048       4.080000 FFF      -7.920661      -0.110295       0.110295       0.000000       1.922153       1.922153       2.391776       0.000000       0.000000       0.376263
W       4.080000       8.160000       0.000000 FFF      -8.285011       0.000000       0.000000       0.000000       2.014891       1.634669       2.014891       0.000000       0.000000       0.000000
W       4.080000       2.038609       2.041391 FFF      -8.264719       0.000000      -0.062516       0.062515       1.626058       1.843526       1.843526       0.221873       0.000000       0.000000
W       4.080000       4.080000       4.080000 FFF      -8.285011       0.000000       0.000000       0.000000       2.014891       2.014891       1.634669       0.000000       0.000000       0.000000
W       4.080000       6.121391       6.118609 FFF      -8.264719       0.000000       0.062516      -0.062515       1.626058       1.843526       1.843526       0.221873       0.000000       0.000000
W       6.130048       8.160000       2.050048 FFF      -7.920661       0.110295       0.000000       0.110296       1.922153       2.391776       1.922153       0.000000      -0.376263       0.000000
W       6.130048       2.029952       4.080000 FFF      -7.920661       0.110295      -0.110295       0.000000       1.922153       1.922153       2.391775       0.000000       0.000000       0.376263
W       6.121391       4.080000       6.118609 FFF      -8.264720       0.062516       0.000000      -0.062515       1.843526       1.626058       1.843526       0.000000       0.221873       0.000000
W       2.038609       6.121391       8.160000 FFF      -8.264719      -0.062515       0.062516       0.000000       1.843526       1.843526       1.626058       0.000000       0.000000       0.221873
W       4.080000       4.080000       0.000000 FFF      -8.250602       0.000001       0.000000       0.000000       1.616716       1.616715       1.616716       0.000000       0.000000       0.000000
W       4.080000       6.121391       2.041391 FFF      -8.264719       0.000000       0.062515       0.062515       1.626058       1.843526       1.843526      -0.221873       0.000000       0.000000
W       6.121391       2.038609       8.160000 FFF      -8.264719       0.062515      -0.062516       0.000000       1.843526       1.843526       1.626058       0.000000       0.000000       0.221873
W       6.121391       4.080000       2.041391 FFF      -8.264719       0.062515       0.000000       0.062516       1.843526       1.626058       1.843526       0.000000      -0.221873       0.000000
W       6.130048       6.130048       4.080000 FFF      -7.920661       0.110295       0.110295       0.000000       1.922153       1.922153       2.391775       0.000000       0.000000      -0.376263
W       6.121391       6.121391       8.160000 FFF      -8.264719       0.062515       0.062515       0.000000       1.843526       1.843526       1.626058       0.000000       0.000000      -0.221873
