          33
 
   N         -1.29312391      3.03744388     -0.37690791
   C          0.02652109      3.08289988      0.01444409
   C          0.45802009      1.82575588      0.37635109
   C         -0.67114191      0.94834988      0.20487109
   C         -0.87053991     -0.42545312      0.41650309
   C         -2.12533591     -0.96931312      0.16733509
   C         -3.18745691     -0.16448112     -0.30431091
   C         -3.00702891      1.19641588     -0.52386991
   C         -1.75010091      1.74268788     -0.26339091
   H         -1.84365691      3.82913388     -0.65346291
   H          0.56576609      4.01682088      0.01707309
   H         -0.08056791     -1.08080812      0.75661009
   H         -4.15672991     -0.59608212     -0.50000591
   H         -3.82701691      1.80433888     -0.88399991
   O         -2.24736491     -2.31084512      0.41405109
   C         -3.48513291     -2.91774312      0.08787309
   H         -4.30312591     -2.51079712      0.68696209
   H         -3.71992391     -2.80161812     -0.97251291
   H         -3.36642591     -3.97285312      0.31506409
   C          1.84162609      1.46707788      0.82640309
   C          2.72287309      0.93769088     -0.31732791
   N          2.22997509     -0.29111012     -0.90996791
   C          2.52196109     -1.56483912     -0.49869791
   C          3.70213109     -1.72710212      0.44057609
   H          2.32731809      2.34966288      1.25137609
   H          1.79416809      0.71439188      1.61756509
   H          2.77816009      1.69552788     -1.10078591
   H          3.73773209      0.77110288      0.03967109
   H          1.37656709     -0.23411712     -1.44607291
   O          1.87738709     -2.52540612     -0.89538991
   H          4.61702609     -1.33920712     -0.00711091
   H          3.53741909     -1.20051112      1.38079809
   H          3.82002209     -2.78701412      0.64028709
