9
 
C    -0.2968880   -0.7162993   -0.3283118 
H     0.3166179   -1.4795679   -0.8093544 
F    -0.2934503   -1.0497191    1.0972460 
F    -1.5431000   -0.7252533   -0.7136418 
C     0.2968880    0.7162993   -0.3283118 
H    -0.3166179    1.4795679   -0.8093544 
F     0.2934503    1.0497191    1.0972460 
F     1.5431000    0.7252533   -0.7136418 
H     0.0000000    0.0000000    1.5081239 
