35
Coordinates from ORCA-job xak
  N   2.47541601367719      0.16740006850770      0.42404708127129
  H   2.79109342548784      1.05977558121039      0.77953039376711
  C   1.25014967747100      0.23051028561265     -0.33748852627746
  H   1.48562063682186      0.06524736706385     -1.39516373972625
  C   0.23493030840903     -0.83627627355322      0.09137767317692
  C   0.74023897338074      1.66681721727053     -0.19560250754416
  H   0.78780734603828     -1.66843150257179      0.52490024262964
  H   -0.41390664006874     -0.42509498224807      0.86727280021007
  C   -0.57786334515033     -1.33862073461623     -1.09466826060609
  O   1.49069530687740      2.56740680914047      0.18472818151339
  H   0.08214719794421     -1.92724073463146     -1.73545117345979
  H   -0.94238110156366     -0.50904550973294     -1.69578385372250
  C   -1.76785889111419     -2.21339366904449     -0.70300036656654
  H   -1.42097891076733     -3.20403018304451     -0.41008390314542
  H   -2.42190045455615     -2.33563285887052     -1.56610689238385
  N   -2.57359085396882     -1.73055468648841      0.40868724608559
  H   -2.29997156879013     -2.03834033033278      1.32672522285723
  C   -3.19722256559407     -0.51489682924938      0.37617040080598
  N   -3.09834236148648      0.26354415957682     -0.65019433153830
  N   -3.88044338257767     -0.23897974860126      1.55948427344297
  H   -3.74329064754949      1.04265257991359     -0.54485100551840
  H   -4.46874503530102      0.57635426084094      1.50670640464726
  H   -4.36844675384478     -1.03162630618782      1.94709113553760
  N   -0.54330441832528      1.89125134592168     -0.53301117591438
  C   -1.08505382411689      3.22896016635157     -0.41652939549303
  H   -1.20080288466091      1.13437918758067     -0.68914648392522
  H   -0.42854417504142      3.93896120219009     -0.91249030318874
  H   -1.18362711343841      3.53510137828979      0.62513251179796
  H   -2.06109115087755      3.24657797863451     -0.89273172336895
  C   3.35631569731843     -0.84250799902909      0.20589417854381
  C   4.68973890593689     -0.70195383650628      0.89984682527182
  O   3.08226950521285     -1.81201130653331     -0.49674630603076
  H   4.72720731422368      0.14592083563669      1.57890965694327
  H   4.89525042468220     -1.61720895063606      1.44882512768595
  H   5.46325234531173     -0.59082898186434      0.14264559222198
