12

   Br    0.000000    0.000000    1.794145
   C     0.000000    0.000000   -0.097650
   C     0.000000    1.207099   -0.775796
   C     0.000000    1.199665   -2.163022
   C     0.000000    0.000000   -2.858018
   C     0.000000   -1.199665   -2.163022
   C     0.000000   -1.207099   -0.775796
   H     0.000000    2.139028   -0.227568
   H     0.000000    2.139500   -2.699981
   H     0.000000    0.000000   -3.940157
   H     0.000000   -2.139500   -2.699981
   H     0.000000   -2.139028   -0.227568
