59
 
H    -0.3417491    3.1199393    1.7764861 
O    -0.4276030    2.1677255    1.9388506 
C     0.2908027    1.8388582    3.1379405 
H    -0.2131554    2.2526366    4.0203966 
H     1.3168637    2.2268519    3.1022568 
C     0.3726234    0.3331886    3.2457942 
H     0.9556787    0.0726271    4.1381062 
O    -0.9563313   -0.2389904    3.3596948 
C    -1.0073392   -1.5035780    2.7143628 
H    -1.3095197   -2.2864490    3.4105555 
N    -2.0635588   -1.4487886    1.6648596 
C    -2.3381071   -0.2854281    0.9883263 
H    -1.7546952    0.5757224    1.3005548 
C    -3.2875963   -0.2089548    0.0221077 
H    -3.4740521    0.7237987   -0.4927689 
C    -4.0594515   -1.3751050   -0.3298793 
O    -4.9520783   -1.4445792   -1.1822814 
N    -3.6887086   -2.5242329    0.3870817 
H    -4.1776692   -3.3858580    0.1585242 
C    -2.7265674   -2.6394574    1.3674102 
O    -2.4668674   -3.7017622    1.9302740 
C     0.9813477   -0.3654334    2.0317917 
H     0.6639521    0.1208837    1.1063531 
C     0.3943565   -1.7817462    2.1426342 
H     0.3532068   -2.3080725    1.1851791 
O     1.1178621   -2.5389834    3.1129514 
H     2.0519871   -2.2666626    3.0224399 
O     2.4024506   -0.3380569    2.1516818 
P     3.3619306   -0.3755475    0.8132866 
O     3.0837150   -1.6196675    0.0179117 
O     4.7467108   -0.0625632    1.2897170 
O     2.6974604    0.9108375    0.0393394 
C     3.4365886    1.4998250   -1.0532315 
H     4.0730993    0.7491305   -1.5349350 
H     4.0685596    2.3076868   -0.6674049 
C     2.4653092    2.0611270   -2.0739150 
H     3.0384134    2.6162948   -2.8244316 
O     1.7803331    0.9694796   -2.7620664 
C     0.3744850    1.0905524   -2.6105389 
H    -0.1039827    1.5053110   -3.5015803 
N    -0.1737149   -0.2704006   -2.4456535 
C     0.5221282   -1.2133521   -1.7308753 
H     1.4782317   -0.8948990   -1.3285123 
C     0.0674554   -2.4781999   -1.5486215 
H     0.6611801   -3.1985353   -1.0020779 
C    -1.1962606   -2.8790158   -2.1085923 
O    -1.7277476   -3.9921224   -2.0219307 
N    -1.8485519   -1.8471869   -2.8029572 
H    -2.7535141   -2.0705087   -3.2088329 
C    -1.4182061   -0.5510154   -3.0098844 
O    -2.0776606    0.2730001   -3.6380715 
C     1.3635125    2.9558242   -1.4911115 
H     1.6420484    3.3867609   -0.5268383 
C     0.1651997    2.0039751   -1.3808369 
H     0.2613190    1.4109537   -0.4695637 
O    -1.0818033    2.6653023   -1.3413450 
H    -0.9669586    3.4633109   -1.8957422 
O     0.9694814    3.9878083   -2.4137839 
H     1.4351575    4.8057409   -2.1786042 
