           7
 
   BI        -0.60393614     -1.67154157      0.00000000
   H          0.09993086     -2.70668557      1.24292700
   H          0.09993086     -2.70668557     -1.24292700
   H          0.86298586     -0.69101057      0.00000000
   H         -0.58058714      3.50884843      0.00000000
   S         -0.60393614      2.17582243      0.00000000
   H          0.72561186      2.09125243      0.00000000
