36
Coordinates from ORCA-job xag
  N   0.94138224537532      0.67287668863003     -0.14182001675540
  C   1.42418334700212     -0.63106679092518      0.29203409366100
  C   2.74104394395045     -0.97612620516017     -0.41904122111290
  O   2.80769163720427     -1.83300910073741     -1.29498418533672
  C   0.36705086289246     -1.69863794246936      0.01506095012325
  H   0.10270599013639      0.70371995728094     -0.70035206612146
  H   1.61234263160840     -0.55570472137579      1.36589986431239
  H   0.33947740694705     -1.88463045544571     -1.05885709585279
  H   0.70079533660364     -2.62944818286632      0.47265088110303
  C   1.35198277277728      1.82157065437765      0.44400603956779
  O   2.28550420361279      1.85948419002547      1.24867427253116
  N   3.78965482294302     -0.24846648959743      0.02234409392043
  H   3.57335622796058      0.52506691596399      0.64216664413623
  C   5.08678201760896     -0.34631035486817     -0.61013745501219
  H   5.19096186804554      0.35561763106165     -1.43824020164631
  H   5.86493804261907     -0.14764830326894      0.12176873216224
  H   5.20257977977907     -1.35316611046253     -0.99934788284136
  C   0.59262508951485      3.06116766281936      0.04504887904570
  H   1.29245077249438      3.78250846476376     -0.37008213234047
  H   0.15924571197555      3.49870693373281      0.94162849081662
  H   -0.19771440410504      2.86317670542818     -0.67519552197558
  C   -0.97727113642711     -1.29476781763066      0.51962843961078
  C   -1.47972996596544     -1.44707364178292      1.79472768390497
  C   -1.96606449935757     -0.56567521305877     -0.21184716435385
  H   -1.04509109011481     -1.94050478383422      2.64894714922568
  C   -3.04471997004285     -0.29680232110463      0.67436891671166
  C   -2.04627055186787     -0.10823143394696     -1.54012898188700
  H   -3.29649481344707     -0.84447865581298      2.70370806158230
  C   -3.16876175046436      0.60338329521496     -1.93520042173104
  H   -1.25858282341325     -0.32790116938062     -2.25194188438397
  N   -2.71580056194952     -0.85064936790053      1.88384686520570
  C   -4.17829870719978      0.41459066421899      0.27539364562690
  C   -4.22204636352621      0.86399625020614     -1.03630828333938
  H   -4.99332465217902      0.61199894422060      0.95957686924778
  H   -5.08480842780161      1.41931424538604     -1.37758892657559
  H   -3.24612599318967      0.95715885829873     -2.95427113122960
