59
 
H    -3.0902610    4.2214318    1.3079798 
O    -3.2303171    3.2672637    1.1992403 
C    -2.4863331    2.5960688    2.2291372 
H    -2.8639911    2.8693824    3.2229466 
H    -1.4190774    2.8494133    2.1706872 
C    -2.6114861    1.1043600    2.0287807 
H    -2.0083130    0.6040558    2.7972855 
O    -3.9945753    0.6786238    2.1759392 
C    -4.2888137   -0.3857478    1.2934222 
H    -4.6794400   -1.2463683    1.8395820 
N    -5.3737015    0.0609644    0.3581311 
C    -5.7562871    1.3741447    0.2629090 
H    -5.2036554    2.0531858    0.9021289 
C    -6.7433576    1.7863158   -0.5735855 
H    -7.0238442    2.8299837   -0.6221689 
C    -7.4203546    0.8382792   -1.4194462 
O    -8.3296939    1.0776233   -2.2244762 
N    -6.9391874   -0.4739715   -1.2824834 
H    -7.3666554   -1.1841051   -1.8716678 
C    -5.9449391   -0.9248168   -0.4408790 
O    -5.5901587   -2.1029298   -0.3888859 
C    -2.1974301    0.5794596    0.6538825 
H    -2.4844675    1.2718238   -0.1416044 
C    -2.9889827   -0.7301449    0.5436635 
H    -3.1758390   -1.0361455   -0.4891957 
O    -2.3189210   -1.7676201    1.2655432 
H    -1.3670958   -1.5519196    1.2032635 
O    -0.7928753    0.3291974    0.6188049 
P     0.1785465    1.2046963   -0.4076334 
O     0.7417439    2.3869118    0.3161116 
O    -0.5362322    1.3601866   -1.7187723 
O     1.3923704    0.1219192   -0.5121995 
C     1.1388211   -1.1460620   -1.1470378 
H     0.8198779   -0.9820060   -2.1811829 
H     0.3479222   -1.6856548   -0.6129928 
C     2.3979092   -1.9804623   -1.1044400 
H     2.1693575   -2.9636865   -1.5378439 
O     3.4385460   -1.3498593   -1.8960789 
C     4.7108799   -1.5720123   -1.3194437 
H     5.3819678   -2.0510937   -2.0344011 
N     5.3207392   -0.2487414   -0.9814686 
C     4.5910365    0.9114293   -0.9572992 
H     3.5403227    0.7903130   -1.1918815 
C     5.1465440    2.1134903   -0.6578368 
H     4.5468519    3.0140776   -0.6523103 
C     6.5481679    2.2042236   -0.3404676 
O     7.1788663    3.2295644   -0.0516172 
N     7.2101947    0.9660815   -0.3682785 
H     8.2024400    0.9699643   -0.1449804 
C     6.6761484   -0.2683797   -0.6685671 
O     7.3374657   -1.3070146   -0.6689696 
C     3.0224241   -2.1806430    0.2759493 
H     2.9187130   -1.2785880    0.8852335 
C     4.5024124   -2.4441191   -0.0719990 
H     5.1915428   -2.1775561    0.7354931 
O     4.6643216   -3.8106214   -0.4523832 
H     3.9926001   -4.3009942    0.0661325 
O     2.4061258   -3.3033733    0.9103082 
H     2.5114266   -3.2097980    1.8719227 
