           7
 
   C          0.00000000     -0.68706565     -0.15561651
   C          0.00000000      0.68706565     -0.15561651
   H         -0.93544202      1.24259171     -0.16297374
   H          0.93544202      1.24259171     -0.16297374
   H          0.93544202     -1.24259171     -0.16297374
   H         -0.93544202     -1.24259171     -0.16297374
   H          0.00000000      0.00000000      0.96312797
