12
 
C    -2.2672042   -1.2336456   -0.0021687 
H    -2.8073993   -1.5228670    0.8952294 
C    -1.8664339    0.0963059    0.0018329 
H    -2.7953434   -1.5210411   -0.9073265 
N    -1.4164892    1.1752514    0.0060550 
Li   -0.2861359   -1.9726867    0.0063779 
C     2.2672042    1.2336456   -0.0021687 
H     2.8073993    1.5228670    0.8952294 
C     1.8664339   -0.0963059    0.0018329 
H     2.7953434    1.5210411   -0.9073265 
N     1.4164892   -1.1752514    0.0060550 
Li    0.2861359    1.9726867    0.0063779 
