16
B48    
 C 0.228241 1.534737 -0.340753
 H -0.102852 2.566949 -0.240335
 O 1.646165 1.602035 -0.464094
 C -0.228241 0.731295 0.872979
 H 0.149535 1.220741 1.771836
 H -1.319889 0.776514 0.929026
 C 0.228241 -0.731295 0.872979
 H -0.149535 -1.220741 1.771836
 H 1.319889 -0.776514 0.929026
 H 1.963935 0.721987 -0.680486
 H -0.218466 1.141486 -1.260642
 C -0.228241 -1.534737 -0.340753
 H 0.218466 -1.141486 -1.260642
 H 0.102852 -2.566949 -0.240335
 O -1.646165 -1.602035 -0.464094
 H -1.963935 -0.721987 -0.680486
