33
Coordinates from ORCA-job xag
  N   2.76821046447429     -0.14759151155818      0.13016587157212
  C   1.36218142792183      0.01288058928712     -0.12176787382729
  C   1.07140835556312      1.50548148393491     -0.13800059606628
  O   1.78188616365443      2.29785545735116      0.47691166849319
  C   0.51505612525947     -0.68325175638570      0.96755581109682
  C   -0.94809365010150     -0.62987377240595      0.64896584144478
  C   -1.47061624900857     -1.41829818787157     -0.38079255716734
  C   -1.80797088076964      0.26141880710546      1.29819741955570
  C   -2.80801810277539     -1.31412626278371     -0.75716975007633
  C   -3.14606552212886      0.37085590584750      0.93546581917921
  C   -3.64927447176516     -0.41631515083256     -0.09976465823636
  O   -4.96888695262015     -0.26676878074214     -0.41924401683889
  H   3.24557441973541      0.65198717113472      0.51727114090117
  H   1.12103898048217     -0.44278524179180     -1.08349277601357
  H   0.86455032702534     -1.71454348535255      1.01706962909851
  H   0.72388826112078     -0.19917321982695      1.92289541962290
  H   -0.82484798023882     -2.12434700301598     -0.88986959642225
  H   -1.42202913323250      0.88181951838636      2.09801383258830
  H   -3.19893335422655     -1.93626459594649     -1.55382229400460
  H   -3.81133947711275      1.05509349668512      1.44339545117442
  H   -5.18007857708517     -0.88631038445119     -1.12548734432729
  N   -0.01858832105605      1.86657369632354     -0.85177188114266
  H   -0.61669775827567      1.12462511223235     -1.17862347749782
  C   -0.56083192681403      3.20727700754602     -0.77127299871783
  H   0.25844956006211      3.88929840980919     -0.56895237500088
  H   -1.02799702158796      3.47070640722661     -1.71604260911814
  H   -1.29681463215534      3.29336598982117      0.02900793689137
  C   3.39941955487267     -1.31411254859285     -0.15231881097800
  O   2.80595765103082     -2.27736833847553     -0.62967406539614
  C   4.87558304569777     -1.34803860693616      0.15845989193074
  H   5.05861233056635     -2.13863801441566      0.88239678416162
  H   5.25204434466339     -0.40658264214714      0.55015375969105
  H   5.41406099882412     -1.60263954915909     -0.75108759657022
