          20
 
   C          2.71179285     -0.43475705      0.12181675
   C          1.21263785     -0.40573705     -0.14821625
   C          0.63272885      0.99251095      0.02690975
   C         -0.84593815      1.13767095     -0.32836725
   C         -1.79086015      0.25488795      0.49763275
   C         -2.11759315     -1.08283605     -0.15946925
   H          2.92737985     -0.09785205      1.13584275
   H          3.24144085      0.22541195     -0.56484425
   H          3.12295685     -1.43655805      0.00800575
   H          0.71142685     -1.10108005      0.52663775
   H          1.01263085     -0.75660205     -1.16358225
   H          1.21348285      1.68833295     -0.58475325
   H          0.77779585      1.30467495      1.06554475
   H         -0.98810315      0.91949195     -1.39069825
   H         -1.12003315      2.18536595     -0.19382225
   H         -2.72677715      0.78887695      0.66717975
   H         -1.35454415      0.08873295      1.48594975
   H         -2.78170515     -1.67909205      0.46524675
   H         -1.22240615     -1.66983905     -0.35182625
   H         -2.61631315     -0.92160405     -1.11518725
