          33
 
   N          0.34673039      2.37194733     -0.25268767
   C         -0.73212761      1.55589333     -0.51989867
   C         -0.33920461      0.23502633     -0.50619967
   C          1.06595439      0.23867133     -0.20304067
   C          2.01578239     -0.78242367     -0.05674567
   C          3.32762739     -0.44030767      0.24928233
   C          3.70662239      0.91171333      0.40965533
   C          2.77742839      1.93630433      0.26297733
   C          1.46156839      1.59032733     -0.04459367
   H          0.30245939      3.36865533     -0.14695867
   H         -1.70476961      1.98541333     -0.69684467
   H          1.75901639     -1.82692867     -0.17284767
   H          4.72652139      1.17008333      0.64841333
   H          3.08043039      2.96792633      0.38677333
   O          4.19956639     -1.49124367      0.37880233
   C          5.54445239     -1.17716167      0.69689433
   H          6.00666739     -0.56263967     -0.07879167
   H          5.61932939     -0.66395867      1.65809233
   H          6.06500139     -2.12820167      0.75745733
   C         -1.16910561     -0.98424267     -0.78657367
   C         -2.66978561     -0.71407167     -0.82878167
   N         -3.13380661     -0.26009667      0.47218333
   C         -4.43573061     -0.09845467      0.86051433
   C         -5.48331961     -0.66431967     -0.07714667
   H         -0.87228661     -1.41908967     -1.74504667
   H         -0.97112861     -1.74303467     -0.02439467
   H         -2.88491061      0.02211433     -1.61156867
   H         -3.18779761     -1.63424367     -1.09704067
   H         -2.46194061      0.19979033      1.06790633
   O         -4.72805461      0.45074833      1.91300433
   H         -6.46150561     -0.44529867      0.33776633
   H         -5.40240661     -0.22533367     -1.07176967
   H         -5.36727761     -1.74356367     -0.17879167
