           6
 
   TE         0.00000000      0.00000000      1.97516867
   H         -1.15322100      0.00000000      3.13323167
   H          1.15322100      0.00000000      3.13323167
   H          0.96025500      0.00000000     -3.05516933
   S          0.00000000      0.00000000     -2.13129333
   H         -0.96025500      0.00000000     -3.05516933
