           7
 
   PB         0.00000000      0.00000000      1.38446757
   H          0.00000000      1.40251800      0.38348257
   H          0.00000000     -1.40251800      0.38348257
   H          1.40666500      0.00000000      2.37801457
   H         -1.40666500      0.00000000      2.37801457
   H          0.00000000      0.00000000     -4.16111343
   BR         0.00000000      0.00000000     -2.74634843
