           5
 
   SI         0.00000000      0.00000000      0.00000000
   H          0.85712174     -0.85712174      0.85712174
   H         -0.85712174      0.85712174      0.85712174
   H         -0.85712174     -0.85712174     -0.85712174
   H          0.85712174      0.85712174     -0.85712174
