          37
 
   O          1.17175685      0.20002704     -1.16421630
   C          2.18375692      0.24402705     -0.50321625
   O          3.30475701     -0.43597301     -0.81121628
   H          3.08875699     -0.95397305     -1.60121634
   C          2.37675694      1.05602711      0.76178384
   H          3.26175700      1.67602715      0.62878383
   H          2.56375695      0.37002706      1.58478390
   N          1.23575685      1.87902717      1.04378386
   H          0.42775679      1.45102714      1.47878390
   C          0.97975683      2.91102725      0.18478380
   O          1.81575689      3.37202728     -0.57821626
   C         -0.46624328      3.38402728      0.21078380
   H         -0.53724328      4.30702735     -0.35521624
   H         -0.81224330      3.53902730      1.23078388
   N         -1.30224334      2.36802721     -0.40021625
   H         -1.29724334      2.23702720     -1.40321632
   C         -1.73124337      1.30402713      0.30678381
   O         -1.60524337      1.20702712      1.53078390
   C         -2.42724343      0.23502704     -0.53321626
   N         -1.87824339      0.26102705     -1.88521636
   H         -0.93024331     -0.10497298     -1.87621636
   H         -2.43024343     -0.32197300     -2.50121641
   H         -3.47324351      0.54902707     -0.60321626
   C         -2.40824343     -1.12297306      0.18978380
   H         -2.82424346     -0.98097305      1.18678387
   H         -3.07224348     -1.79397311     -0.35821624
   C         -1.04424332     -1.74597311      0.28478381
   C         -0.55124329     -2.53997317     -0.75521627
   H         -1.17324333     -2.72497318     -1.62221634
   C          0.71375681     -3.12097321     -0.68021627
   H          1.07075684     -3.74097326     -1.49221633
   C          1.50675687     -2.92097319      0.44778382
   H          2.48475695     -3.37697323      0.51578382
   C          1.02175683     -2.14097314      1.49778390
   H          1.61975688     -2.00597313      2.38978397
   C         -0.24124326     -1.55797309      1.41578389
   H         -0.62224329     -0.95997305      2.23378395
