          33
 
   N         -0.06489927      2.46166485     -0.51113661
   C          0.93473973      1.67444385     -1.04490861
   C          0.55560473      0.35141985     -1.02463661
   C         -0.75754827      0.32124385     -0.44157961
   C         -1.66866027     -0.71505415     -0.15858161
   C         -2.88310127     -0.38998815      0.42045239
   C         -3.22156127      0.94696585      0.72592339
   C         -2.34605827      1.98562585      0.44997739
   C         -1.11699227      1.65897885     -0.13581461
   H         -0.04293227      3.46276785     -0.44685861
   H          1.84888773      2.11518885     -1.40907361
   H         -1.44545027     -1.75141815     -0.37611661
   H         -4.17467727      1.14463485      1.19769039
   H         -2.60642327      3.00865785      0.68946639
   O         -3.77018827     -1.40182815      0.74462339
   C         -4.83714927     -1.51073915     -0.19420661
   H         -5.41614827     -0.58595715     -0.24488561
   H         -4.45394127     -1.74508315     -1.19024861
   H         -5.47622527     -2.31932215      0.15081439
   C          1.38338473     -0.81785015     -1.45395761
   C          1.85995973     -1.66019615     -0.25853961
   N          2.57805973     -0.87505715      0.73043839
   C          3.84826973     -0.43993415      0.49396739
   C          4.41113973      0.51701685      1.52596939
   H          0.81388673     -1.46576415     -2.12614561
   H          2.26097273     -0.47153215     -2.00023961
   H          1.01090973     -2.12221115      0.24416139
   H          2.52470473     -2.44794015     -0.60893961
   H          2.04121073     -0.39982815      1.43399839
   O          4.49932973     -0.80418415     -0.47648261
   H          4.54911073      1.49097085      1.05834839
   H          3.77268073      0.62811085      2.40042539
   H          5.38910473      0.15619685      1.83609539
