          34
 
   C         -1.95174370      0.21283608      0.00000000
   C         -1.95174370     -0.62563722      1.27595745
   C         -1.95174370     -0.62563722     -1.27595745
   C         -1.95174370      0.22494808      2.54341391
   C         -1.95174370      0.22494808     -2.54341391
   H         -2.83047301      0.87229631      0.00000000
   H         -1.07301438      0.87229631      0.00000000
   H         -2.82975401     -1.28373546      1.27393345
   H         -1.07373338     -1.28373546      1.27393345
   H         -2.82975401     -1.28373546     -1.27393345
   H         -1.07373338     -1.28373546     -1.27393345
   H         -2.83576901      0.86916331      2.57989892
   H         -1.06771838      0.86916331      2.57989892
   H         -1.95174370     -0.39673214      3.44361723
   H         -2.83576901      0.86916331     -2.57989892
   H         -1.06771838      0.86916331     -2.57989892
   H         -1.95174370     -0.39673214     -3.44361723
   C          1.95174370     -0.21283608      0.00000000
   C          1.95174370      0.62563722     -1.27595745
   C          1.95174370      0.62563722      1.27595745
   C          1.95174370     -0.22494808     -2.54341391
   C          1.95174370     -0.22494808      2.54341391
   H          1.07301438     -0.87229631      0.00000000
   H          2.83047301     -0.87229631      0.00000000
   H          1.07373338      1.28373546     -1.27393345
   H          2.82975401      1.28373546     -1.27393345
   H          1.07373338      1.28373546      1.27393345
   H          2.82975401      1.28373546      1.27393345
   H          1.06771838     -0.86916331     -2.57989892
   H          2.83576901     -0.86916331     -2.57989892
   H          1.95174370      0.39673214     -3.44361723
   H          1.06771838     -0.86916331      2.57989892
   H          2.83576901     -0.86916331      2.57989892
   H          1.95174370      0.39673214      3.44361723
