7
 
C     0.0000000   -0.7086540    0.0996485 
C     0.0000000    0.7086540    0.0996485 
Cl   -1.4459067   -1.5704256    0.2108608 
Cl    1.4459067   -1.5704256    0.2108608 
Cl   -1.4459067    1.5704256    0.2108608 
Cl    1.4459067    1.5704256    0.2108608 
H     0.0000000    0.0000000   -1.0427402 
