9
 
S    -1.1061429    0.5852940    1.5877747 
O    -1.6297140    0.0101286    0.0000000 
S    -1.1061429    0.5852940   -1.5877747 
O     0.2178557   -0.2838025   -1.8485490 
S     1.7490699    0.3343959   -1.4335432 
O     2.0202535   -0.4390771    0.0000000 
S     1.7490699    0.3343959    1.4335432 
O     0.2178557   -0.2838025    1.8485490 
H    -2.1121048   -0.8428262    0.0000000 
