          60
 
   C          3.69552068      0.58348614      0.44256373
   C          3.13431154      1.68451893     -0.24556702
   C          2.93823002      1.25581299     -1.63390642
   C          3.69552068     -0.58348614     -0.44256373
   C          3.24797954     -0.17713171     -1.71743903
   C          3.13431154     -1.68451893      0.24556702
   C          3.24797954      0.17713171      1.71743903
   C          2.93823002     -1.25581299      1.63390642
   C          2.39244298      1.04066408      2.41626878
   C          2.16993566      2.52987619      0.40620933
   C          1.89676724      2.23878907      1.78335413
   C          1.10596918      3.14415754     -0.40620933
   C          1.88292974      1.76302273     -2.36154288
   C          0.99046457      2.76204311     -1.78335413
   C          1.10397908      0.89541617     -3.24236714
   C          2.39244298     -1.04066408     -2.41626878
   C          1.33675580     -0.48470344     -3.24956234
   C          2.16993566     -2.52987619     -0.40620933
   C          1.89676724     -2.23878907     -1.78335413
   C          1.10596918     -3.14415754      0.40620933
   C          1.88292974     -1.76302273      2.36154288
   C          0.99046457     -2.76204311      1.78335413
   C          1.33675580      0.48470344      3.24956234
   C          1.10397908     -0.89541617      3.24236714
   C          0.58535764      2.51217629      2.36154288
   C          0.22346362      1.40378201      3.24236714
   C         -0.10831961      3.55665287      0.24556702
   C         -0.38154903      3.17248834      1.63390642
   C         -1.34244650      3.49215786     -0.44256373
   C         -0.29498002      2.59224850     -2.41626878
   C         -0.24861242      1.40001621     -3.24956234
   C         -1.47058921      2.90139862     -1.71743903
   C         -1.32744270      0.50836584     -3.24236714
   C          0.22346362     -1.40378201     -3.24236714
   C          0.58535764     -2.51217629     -2.36154288
   C         -1.08814338     -0.91531277     -3.24956234
   C         -0.10831961     -3.55665287     -0.24556702
   C         -0.38154903     -3.17248834     -1.63390642
   C         -1.34244650     -3.49215786      0.44256373
   C         -0.29498002     -2.59224850      2.41626878
   C         -0.24861242     -1.40001621      3.24956234
   C         -1.47058921     -2.90139862      1.71743903
   C         -1.08814338      0.91531277      3.24956234
   C         -1.32744270     -0.50836584      3.24236714
   C         -1.77739033      2.72426691      1.71743903
   C         -2.35307418      2.90867172      0.44256373
   C         -2.09746306      1.55158442      2.41626878
   C         -2.55668099      1.91667534     -1.63390642
   C         -2.46828729      0.74915356     -2.36154288
   C         -3.02599193      1.87213394     -0.24556702
   C         -2.09746306     -1.55158442     -2.41626878
   C         -1.77739033     -2.72426691     -1.71743903
   C         -2.35307418     -2.90867172     -0.44256373
   C         -2.88723182     -0.52325404     -1.78335413
   C         -2.55668099     -1.91667534      1.63390642
   C         -2.46828729     -0.74915356      2.36154288
   C         -2.88723182      0.52325404      1.78335413
   C         -3.27590495      0.61428135      0.40620933
   C         -3.02599193     -1.87213394      0.24556702
   C         -3.27590495     -0.61428135     -0.40620933
