7
 
 C                 -0.05875000    0.89144300    0.00000000
 N                 -0.05875000   -0.65268200    0.00000000
 H                  0.54543800    1.14559100    0.87796200
 H                  0.54543800    1.14559100   -0.87796200
 H                 -0.58279700   -0.96168900   -0.81209700
 H                 -0.58279700   -0.96168900    0.81209700
 H                  0.83846200   -1.14768300    0.00000000
