13
 
  P   0.00920266279981      0.06573476380583     -0.01941553077118
  C   0.03084523252492      0.16866087167534      1.80319370375318
  C   1.56394943374985     -0.28968194563657     -0.91322032833377
  C   -1.57909524747523      0.18921138117316     -0.91816369325479
  H   1.39916209475742     -1.03891667183689     -1.68768266718642
  H   2.03463691708142      0.58519307334623     -1.36345105496803
  H   2.25480939800958     -0.72224866370847     -0.18784404803684
  H   -1.80153678185478      1.18097094939505     -1.31532347731660
  H   -1.59501987355124     -0.52749106142797     -1.73960375128504
  H   -2.37367534738194     -0.09623324210547     -0.22679815690807
  H   -0.96433151179370     -0.09710238304876      2.16406506732201
  H   0.72510046809741     -0.56853606484426      2.20606744387874
  H   0.29595355503648      1.15043899321278      2.19817449310680
