25
Coordinates from ORCA-job xay
  N   -1.11244696633544     -0.96781622844787     -0.53006282786366
  H   -1.05570802484758     -1.44113354733725     -1.41602232730936
  C   0.11630864628438     -0.43372183459715      0.04403776353627
  H   0.05798784730521     -0.59376447864820      1.12245904605643
  C   1.29621103194040     -1.19411752611965     -0.55061933998419
  C   0.20887581743940      1.07591195944200     -0.22569956294784
  H   1.40659670335939     -0.90933811981685     -1.59831240759237
  H   1.09093829294438     -2.25905683910196     -0.48072820964844
  C   2.60815801125249     -0.96095072885752      0.18532181046357
  O   1.06505811792491      1.55346196518240     -0.98361535014433
  O   3.15793230296433      0.24870452170605      0.02586426717024
  O   3.12243026111811     -1.81484184252345      0.86807108521005
  N   -0.71035417547145      1.80234282863806      0.41700231067148
  C   -0.81433856559947      3.23715880552353      0.24698728795419
  H   -1.40527249477387      1.28736208065212      0.95073868289905
  H   -1.57879540613581      3.49628801788942     -0.48420963167612
  H   -1.06168102755964      3.69753250347212      1.19919247563724
  H   0.14332942728115      3.61006530007926     -0.10128420146753
  C   -2.30581744523096     -0.90400515663329      0.11075143823162
  C   -3.45095087252151     -1.62068175614336     -0.55330747351300
  O   -2.44307156305844     -0.30069695562904      1.17545964450953
  H   -3.80205411567497     -2.39935233036132      0.11993923722511
  H   -3.18384668477899     -2.06648876878231     -1.50779698127572
  H   -4.26599090447460     -0.91605622567635     -0.69695547842339
  H   2.53736178664861      0.80031535609062     -0.50240525771885
