26
Coordinates from ORCA-job xae
  N   -1.15783536116875     -0.95708510473351     -0.54603997815784
  C   0.10494474006261     -0.47638489180790     -0.00111378689784
  C   0.24091299623761      1.02727778857274     -0.28556380526618
  O   0.98871671813049      1.47077722105732     -1.16070869723057
  C   1.25381428595061     -1.26907623563791     -0.60634042901700
  C   2.53947777123384     -1.06511948519883      0.18006581253274
  O   2.85444459686832     -1.81601499683372      1.09217476082262
  N   3.28749407470764     -0.00531083155353     -0.22331184311091
  H   -1.15634789875994     -1.37201453304283     -1.46247640699007
  H   0.06160629773453     -0.63498627480436      1.07737999952169
  H   1.38098022905029     -0.97498361500568     -1.64792655566755
  H   1.01649125303294     -2.32836449972167     -0.54190538391163
  H   4.06432140528121      0.24945867253281      0.36223997717540
  H   2.83983690345313      0.70190065333403     -0.78772277905182
  N   -0.54390984411023      1.79274948437761      0.49079509101684
  H   -1.22037786538108      1.30692260772743      1.07021894379242
  C   -0.63351126240816      3.22355894103382      0.29088458193211
  H   -1.35750597927710      3.47955443463540     -0.48267131222588
  H   -0.92578941846282      3.69762713067886      1.22305775546594
  H   0.33955693364789      3.59382814065994     -0.01663030196680
  C   -2.32983642296210     -0.82884354526423      0.12368767469646
  O   -2.40391844202500     -0.25583668661813      1.21091734940804
  C   -3.53733507609440     -1.43835261233424     -0.53891174781095
  H   -4.27351410979550     -0.65615356210299     -0.70785852694048
  H   -3.30891268162689     -1.92949639767359     -1.48119151889362
  H   -3.97439584331912     -2.16049580227685      0.14635912677489
