          42
 
   C          0.29912473      1.23719720     -0.81404413
   C         -0.28331135     -0.06441533     -1.41453390
   C          0.00795466     -1.42104208     -0.74800780
   C          0.08755390     -1.21568953      0.83348336
   C         -0.17912152      0.21718503      1.44615368
   C         -0.31952577      1.53772259      0.55665455
   C         -0.06855126      1.92162790     -2.17123538
   C          0.02111739      0.49892022     -2.83524584
   C         -1.80192806     -0.46377053     -1.32923959
   C         -1.32606411     -1.94332474     -1.31233085
   C          1.36584869     -2.15432233     -0.72442806
   C          1.48332576     -1.89816721      0.80798776
   C         -1.00663848     -1.78073691      1.77854164
   C         -1.42423269     -0.34130711      2.18303794
   C          0.87457683      0.95056162      2.31772625
   C          0.50680227      2.30056770      1.63888917
   O         -1.63360004      2.05408667      0.34340561
   C          1.83955979      1.18016325     -0.71966085
   H          0.61527935      2.69932859     -2.53549758
   H         -1.09667660      2.29570923     -2.17030216
   H         -0.71322764      0.26043110     -3.61347081
   H          1.02532099      0.27540009     -3.21183497
   H         -2.43580717     -0.13134411     -2.15941916
   H         -2.26779918     -0.17504791     -0.38771120
   H         -1.89617417     -2.67374199     -0.72498945
   H         -1.18888773     -2.33307894     -2.33019667
   H          2.14370767     -1.68447807     -1.33831074
   H          1.29716171     -3.21523922     -0.99628478
   H          1.52104384     -2.80730291      1.42213620
   H          2.31940539     -1.25570560      1.10832611
   H         -0.56025262     -2.34154225      2.60969153
   H         -1.78665684     -2.40080947      1.32257090
   H         -2.37119590     -0.02612085      1.72781961
   H         -1.46261758     -0.13161207      3.26010102
   H          1.90365426      0.63340058      2.12095954
   H          0.69658725      0.89185681      3.39901446
   H         -0.16212045      2.90923198      2.26099420
   H          1.33095218      2.93536318      1.29543677
   H         -2.05552665      2.12517060      1.21078261
   H          2.18809052      0.52521284      0.07863843
   H          2.28259681      0.82190035     -1.65290926
   H          2.23025183      2.18776164     -0.53269816
