          14
 
   C         -1.79347804     -0.76585102      0.00000000
   C         -0.33432450     -0.87148938      0.00000000
   C          0.33432450      0.87148938      0.00000000
   C          1.79347804      0.76585102      0.00000000
   H         -2.12545330     -1.82853641      0.00000000
   H         -2.21328730     -0.32344251     -0.90385061
   H         -2.21328730     -0.32344251      0.90385061
   H          0.14637148     -1.21529233     -0.91371713
   H          0.14637148     -1.21529233      0.91371713
   H         -0.14637148      1.21529233      0.91371713
   H         -0.14637148      1.21529233     -0.91371713
   H          2.21328730      0.32344251      0.90385061
   H          2.12545330      1.82853641      0.00000000
   H          2.21328730      0.32344251     -0.90385061
