9
3H2O (cyc) (Full point group C1)
O 1.452268 -0.709273 -0.085209
H 0.563883 -1.109426 -0.043402
O -1.348866 -0.891503 -0.094039
H -1.220857 0.073636 -0.023719
O -0.102608 1.607130 0.110508
H -0.006681 2.240437 -0.606048
H 1.979703 -1.145727 0.588961
H -1.996402 -1.127971 0.575189
H 0.674002 1.018221 0.058931
