42
 
  C   2.77723967512864     -0.48089266850915     -2.08002313900362
  C   3.35680139633774     -0.30219352281294     -0.86456735487468
  C   2.56069954989949     -0.18973842125664      0.30489856129267
  C   1.14169980084058     -0.23710010803689      0.21129092658228
  C   0.57838515330572     -0.76421927087222     -1.01373369766031
  C   1.38757578172891     -0.75348870577122     -2.17542554103528
  C   0.82560040596305     -1.05942175658924     -3.45017881185026
  C   -0.46801860096074     -1.44052462317187     -3.57328629599980
  C   -1.26451789349033     -1.66124443966804     -2.41347107633809
  C   -0.72661772274914     -1.39004027684264     -1.12276219302447
  C   3.18749516040257     -0.03356303510432      1.56915824834763
  C   2.44398955815209      0.08169406465456      2.70048074864845
  C   1.03767088305738      0.25472715878064      2.61519927172359
  C   0.39437024103359      0.24031762334081      1.35543029820863
  C   0.28236081817118      0.48810041024380      3.80302921896325
  C   -1.03907041960017      0.78387156885299      3.74896865643405
  C   -1.67488849838284      0.99825113345753      2.49175218691326
  C   -0.94268802267076      0.79582544930665      1.28758278292925
  C   -1.47885332486006     -1.81695529965726     -0.00735803207828
  C   -2.73073230997376     -2.36522947371199     -0.14928966211010
  C   -3.29701943220070     -2.53000403835888     -1.42262466796458
  C   -2.56121042632609     -2.20333149251504     -2.53414656156114
  H   3.37187077225728     -0.49313639205128     -2.98435882735541
  H   4.43056491919063     -0.20517773311899     -0.76909033390804
  H   1.46155888402327     -0.97246638996492     -4.32150625105783
  H   -0.89617748275901     -1.64596279171471     -4.54583262915503
  H   4.26883568829466     -0.04979604369025      1.61325938223883
  H   2.91410295006884      0.11862518123096      3.67487548164292
  H   0.79368493218359      0.41673579741328      4.75441527151327
  H   -1.61231055912134      0.93135708539927      4.65513256270251
  C   -3.00203534652917      1.47201869544974      2.43207423729718
  C   -1.54374692834826      1.22000680711841      0.08334765121924
  H   -1.06318008304654     -1.71933685642078      0.98136705619444
  H   -3.27925132347789     -2.67671471211220      0.72949314309449
  H   -4.29088627512734     -2.94464689077394     -1.52557051493741
  H   -2.95762795587666     -2.38038702914983     -3.52626115902204
  C   -3.58214306663119      1.80041523329664      1.23207876596657
  C   -2.82843353400512      1.70520835455026      0.05210318165842
  H   -3.54705611948636      1.60048411893992      3.35921810173440
  H   -4.59938152410423      2.16709873846274      1.19886846500205
  H   -3.25871750884250      2.02088515803579     -0.88889127913108
  H   -0.98160721146901      1.17123839334125     -0.83439317223995
