          17
 
   B          0.00000000      0.00000000     -0.77436700
   P          0.00000000      0.00000000      1.20557400
   C          0.00000000     -1.70380100      1.86618200
   C         -1.47553500      0.85190100      1.86618200
   C          1.47553500      0.85190100      1.86618200
   CL         0.00000000      1.79380900     -1.28695700
   CL        -1.55348400     -0.89690500     -1.28695700
   CL         1.55348400     -0.89690500     -1.28695700
   H          2.36448100      0.34128200      1.49287400
   H          1.47779900      1.87706000      1.49287400
   H          1.47087400      0.84920900      2.95816600
   H         -1.47779900      1.87706000      1.49287400
   H         -2.36448100      0.34128200      1.49287400
   H         -1.47087400      0.84920900      2.95816600
   H          0.00000000     -1.69841900      2.95816600
   H         -0.88668200     -2.21834100      1.49287400
   H          0.88668200     -2.21834100      1.49287400
