59
 
H    -1.0849971    4.7281240   -2.1094576 
O    -1.3367934    4.0641562   -1.4478998 
C    -0.1518755    3.6871312   -0.7312006 
H     0.3352091    4.5672516   -0.2938808 
H     0.5658669    3.1823080   -1.3920453 
C    -0.5234379    2.7219376    0.3703876 
H     0.3989299    2.3966031    0.8694755 
O    -1.3782558    3.3777877    1.3496110 
C    -2.3211083    2.4604964    1.8779880 
H    -2.2401546    2.4112687    2.9652058 
N    -3.6975459    2.9646223    1.5861036 
C    -3.9520727    3.8118617    0.5372541 
H    -3.0822591    4.0821263   -0.0535005 
C    -5.1952187    4.2891376    0.2713550 
H    -5.3634952    4.9625129   -0.5588094 
C    -6.3110759    3.9132266    1.1025400 
O    -7.4866895    4.2780050    0.9769883 
N    -5.9592221    3.0421230    2.1464889 
H    -6.7063377    2.7432655    2.7685357 
C    -4.7113650    2.5370152    2.4419746 
O    -4.5020163    1.7770847    3.3876095 
C    -1.3120878    1.4822535   -0.0572737 
H    -2.0138085    1.7289108   -0.8588505 
C    -2.0482278    1.0918677    1.2344518 
H    -2.9703276    0.5285697    1.0597788 
O    -1.1607105    0.3621856    2.0856805 
H    -0.5675237   -0.1203072    1.4731679 
O    -0.4046689    0.4642935   -0.4766979 
P    -0.8484843   -0.5326103   -1.7279711 
O    -1.1675128    0.3155291   -2.9237196 
O    -1.8084169   -1.5679801   -1.2277983 
O     0.5860933   -1.2858166   -1.9055485 
C     1.6960538   -0.5422875   -2.4597291 
H     1.7413579    0.4545029   -2.0113202 
H     1.5653319   -0.4424096   -3.5419190 
C     2.9803977   -1.2915008   -2.1832774 
H     3.7857030   -0.8221148   -2.7645786 
O     3.3074760   -1.2082133   -0.7705976 
C     3.9234301   -2.4152990   -0.3331705 
H     4.9110755   -2.2136684    0.0820837 
N     3.1284621   -2.9736762    0.7835935 
C     1.7563412   -3.0112749    0.7101886 
H     1.3334242   -2.5809767   -0.1922926 
C     0.9824881   -3.5085618    1.7049448 
H    -0.0954517   -3.5254117    1.6144151 
C     1.5967153   -4.0058456    2.9110812 
O     1.0162947   -4.4800613    3.8946048 
N     2.9957741   -3.8960924    2.9159972 
H     3.4780226   -4.2252345    3.7486906 
C     3.8130919   -3.4020233    1.9215678 
O     5.0366988   -3.3461368    2.0348461 
C     2.9488324   -2.7914392   -2.4940198 
H     1.9674850   -3.2145050   -2.2626742 
C     4.0217478   -3.3532932   -1.5444501 
H     3.8494952   -4.3987619   -1.2649048 
O     5.3145580   -3.1878270   -2.1289900 
H     5.1636357   -3.2264272   -3.0964558 
O     3.2706939   -2.9932447   -3.8721778 
H     2.9304554   -3.8631571   -4.1413987 
