           6
 
   C         -0.50990478      0.34670665      0.00000000
   C          0.62680891     -0.31940473      0.00000000
   F         -1.70753006     -0.27625689      0.00000000
   H         -0.61789732      1.42276439      0.00000000
   H          0.65013405     -1.39937868      0.00000000
   H          1.55838920      0.22556926      0.00000000
