19
Coordinates from ORCA-job xag
  C   0.21214916057836     -1.97625728595585     -2.00726829647457
  H   0.04007938040613     -1.24512388913161     -2.79515187940898
  H   -0.18152972167165     -2.92188746373037     -2.37501183804514
  N   1.62967795447102     -2.05535692277556     -1.74437970549057
  H   2.23790020078560     -1.34249824898023     -2.11559568403401
  C   -0.67121166839515     -1.56655787772946     -0.82995905640458
  O   -1.88948994056625     -1.60284709356464     -0.93870079139479
  C   2.29725840660009     -3.14444410387359     -1.23578451822025
  O   3.51459762732185     -3.14899511240845     -1.14041763728783
  N   -0.00603725853449     -1.17774448184682      0.28096646462856
  H   0.99866428621043     -1.16637429453118      0.23269949187247
  C   -0.69521961554682     -0.73126615484642      1.47152423299734
  H   -0.59635850582739      0.34437634029559      1.60937509920781
  H   -1.74632533861645     -0.97346054128559      1.34853961584209
  H   -0.30647383692536     -1.23964775298938      2.35066188624389
  C   1.43169110020395     -4.30191284851133     -0.80401688216512
  H   0.60863528611604     -3.97556192818746     -0.17088607793161
  H   2.05623955430385     -5.00615704454034     -0.26632591635084
  H   1.00675592908622     -4.79988529540729     -1.67517150758385
