          43
 
   H          6.49239878     -1.96150786     -0.26733211
   C          6.48352870     -0.88385625     -0.44538127
   H          6.44582985     -0.69796006     -1.52176744
   H          7.41922338     -0.48003582     -0.04803486
   C          5.32505644     -0.27256008      0.32656228
   O          5.20448466     -0.41831666      1.53769994
   N          4.44635558      0.46277155     -0.42306735
   H          4.52635611      0.47747933     -1.43046677
   C          3.24966323      1.07300867      0.14304106
   H          3.26040285      0.80139357      1.20191920
   C          3.25413539      2.59646288     -0.01942419
   H          3.23839767      2.86309002     -1.07936965
   H          2.37118105      3.03797040      0.45351611
   H          4.14720378      3.01988652      0.44657143
   C          2.03737999      0.46303999     -0.57972770
   O          1.86793996      0.64616507     -1.78140789
   N          1.22722124     -0.32124301      0.18502623
   H          1.36622844     -0.35849999      1.18668029
   C         -0.00578940     -0.91052795     -0.31717155
   H         -0.09250679     -0.61423978     -1.36511502
   C          0.03339737     -2.43578039     -0.21301365
   H          0.86643537     -2.81470132     -0.82246863
   H          0.21408064     -2.70793458      0.83583843
   O         -1.22752070     -2.91002776     -0.66680026
   H         -1.29365311     -3.84853157     -0.44959259
   C         -1.16068308     -0.35780789      0.53562943
   O         -1.20013184     -0.59435262      1.74151854
   N         -2.03587873      0.45645417     -0.10646557
   H         -2.00698031      0.52910360     -1.11443475
   C         -3.19095552      1.05579942      0.56020382
   H         -3.14622681      0.70370430      1.59431072
   C         -3.13481093      2.58510426      0.51256777
   H         -3.18853299      2.92920530     -0.52264101
   H         -3.98031817      3.01725697      1.05811801
   H         -2.20670677      2.94381240      0.96609469
   C         -4.45138336      0.54569172     -0.15833701
   O         -4.67483299      0.86403927     -1.32306060
   N         -5.25467923     -0.27195149      0.57372118
   H         -4.94674574     -0.54344183      1.49580108
   C         -6.44892173     -0.89125138      0.02369923
   H         -6.32080371     -1.97294686     -0.09510264
   H         -7.31543798     -0.70507049      0.66661656
   H         -6.62348936     -0.44738277     -0.95683946
