          37
 
   O         -1.58686499     -1.52597309      0.28181083
   C         -2.56286506     -2.05097313     -0.20718920
   O         -2.79586508     -3.37597323     -0.16118920
   H         -2.05386502     -3.76397326      0.32681084
   C         -3.66486514     -1.33697307     -0.96518926
   H         -4.61686522     -1.65097310     -0.54418923
   H         -3.63086514     -1.66497310     -2.00218934
   N         -3.53786513      0.08902703     -0.88518926
   H         -2.81786508      0.54102707     -1.44018930
   C         -3.79986515      0.67602708      0.32181084
   O         -4.41486520      0.12102704      1.22081090
   C         -3.17386511      2.05402718      0.47181085
   H         -3.63386514      2.55902722      1.31381091
   H         -3.29486511      2.64602723     -0.43418922
   N         -1.75586500      1.88102717      0.72281087
   H         -1.42486497      1.62502715      1.64481094
   C         -0.89986493      1.59602715     -0.28018921
   O         -1.20686496      1.65602715     -1.47318930
   C          0.49813517      1.19902712      0.18481082
   N          0.41913517      0.63902708      1.53181093
   H          1.35313524      0.53302707      1.90981096
   H          0.02013514     -0.29397300      1.47181092
   H          1.08213522      2.12202719      0.24981083
   C          1.14813522      0.28802705     -0.86618925
   H          0.53513518     -0.60897302     -0.96518926
   H          1.13713522      0.80302709     -1.82518933
   C          2.54613533     -0.07397298     -0.46318922
   C          2.81513535     -1.27397307      0.20181083
   H          2.00613529     -1.97397312      0.37181084
   C          4.10613545     -1.58197309      0.62981086
   H          4.29613546     -2.51797316      1.13781090
   C          5.14813553     -0.68697303      0.40081084
   H          6.15113560     -0.92497304      0.72981087
   C          4.89413551      0.51202707     -0.26218921
   H          5.70113557      1.20802712     -0.45118922
   C          3.60313541      0.81402709     -0.68818924
   H          3.41213539      1.74402716     -1.21018928
