16
B26    
 C -2.048929 0.364612 0.3057
 H -2.809136 1.08919 0.018518
 O -2.453808 -0.867221 -0.287437
 C -0.679124 0.831647 -0.171931
 H -0.710542 0.952205 -1.257152
 H -0.484628 1.818509 0.259005
 C 0.449427 -0.123609 0.211946
 H 0.285179 -1.096955 -0.260419
 H 0.460845 -0.283223 1.293301
 H -1.932571 -1.567428 0.11225
 H -2.057982 0.28915 1.398144
 C 1.814472 0.398157 -0.216288
 H 1.821638 0.579705 -1.296237
 H 2.020721 1.347662 0.276812
 O 2.88189 -0.465608 0.161884
 H 2.766753 -1.291027 -0.316364
