14

C        0.000000    1.236399   -0.082796 
C        0.000000   -1.236399   -0.082796 
C        0.000000    0.000000    0.805506 
C        0.000000    0.664139   -1.475356 
C        0.000000   -0.664139   -1.475356 
C        0.000000    0.000000    2.130556 
H        0.874953    1.867281    0.101655 
H       -0.874953    1.867281    0.101655 
H        0.874953   -1.867281    0.101655 
H       -0.874953   -1.867281    0.101655 
H        0.000000    1.284345   -2.360741 
H        0.000000   -1.284345   -2.360741 
H        0.000000   -0.921691    2.698154 
H        0.000000    0.921691    2.698154 
