           6
 
   C         -0.13926933      0.33472048      0.00000000
   O         -0.13926933     -1.08341104      0.00000000
   H         -1.17980283      0.64759124      0.00000000
   H          0.76774408     -1.38539133      0.00000000
   H          0.34529870      0.74324532      0.88954166
   H          0.34529870      0.74324532     -0.88954166
