          20
 
   C         -1.82634110      1.23514935      0.02248765
   C         -2.03390710     -0.25579865     -0.21408035
   C         -0.89899010     -1.14121365      0.29829965
   C          0.46752190     -0.84166165     -0.33173435
   C          1.34927090      0.08924335      0.49542065
   C          2.66815690      0.40053535     -0.19928735
   H         -0.96057310      1.60887135     -0.52219535
   H         -1.67131410      1.44479035      1.08113165
   H         -2.69294910      1.80606035     -0.30801435
   H         -2.15951210     -0.43546865     -1.28453435
   H         -2.96603410     -0.56745365      0.26097865
   H         -1.16964610     -2.18062765      0.10640465
   H         -0.82304710     -1.04150365      1.38492365
   H          0.32207390     -0.41335565     -1.32845935
   H          1.01619490     -1.77385365     -0.48318635
   H          1.54334090     -0.38250965      1.46140065
   H          0.81739790      1.01627435      0.70974265
   H          3.30200290      1.04468635      0.40814065
   H          2.49450590      0.90313235     -1.15085135
   H          3.22184790     -0.51529665     -0.40658735
