23
Coordinates from ORCA-job xaf
  N   -1.04460344329422     -0.81315379514915     -0.51015246459476
  C   0.27280116424212     -0.84946082184900      0.10171574895071
  C   1.14942632308994      0.31604916968337     -0.37527434349657
  O   2.16393200846634      0.12757529660701     -1.05175111541678
  C   0.93436987833949     -2.17893994460633     -0.23643225163178
  O   2.22232433010506     -2.27635417631639      0.31830471070948
  H   -1.19971380704837     -1.36898941855739     -1.33452890213351
  H   0.13990844320185     -0.76473230320132      1.18076422279162
  H   0.33548811857684     -2.98760759440574      0.17951687624668
  H   0.95765628394823     -2.29200975556386     -1.32663649326702
  H   2.72558529300422     -1.58219335711636     -0.13124872603839
  N   0.70730199426017      1.52381869188797      0.01641224708665
  H   -0.16396024399964      1.54275954525821      0.53548010694163
  C   1.37287265378386      2.75077220076810     -0.36423888151379
  H   0.78481675817144      3.31184900457910     -1.08917315646671
  H   1.54353014541595      3.37389009533201      0.51047431856339
  H   2.32612812634607      2.48732848463013     -0.81121638038946
  C   -2.05518427243464     -0.04209279661149     -0.03957583561136
  O   -1.90370803871300      0.73202993500442      0.90554640345156
  C   -3.38139060861556     -0.19546559529463     -0.73769197272924
  H   -4.11192157799947     -0.54396190559969     -0.01132440732204
  H   -3.35001593920423     -0.88899744894537     -1.57403358813032
  H   -3.70493258964246      0.78126548946638     -1.08829111600000
