          12
 
   O         -3.09433732      0.85814942      0.00000000
   C         -1.98085167      0.88459727      0.00000000
   C         -0.56386858      0.84471555      0.00000000
   C         -0.04779567     -0.62594718      0.00000000
   C          1.46919063     -0.61408955      0.00000000
   H         -0.23634045      1.40136954      0.89013824
   H         -0.23634045      1.40136954     -0.89013824
   H         -0.43806749     -1.13427950     -0.88350203
   H         -0.43806749     -1.13427950      0.88350203
   H          1.86841997     -0.11912221     -0.88743942
   H          1.82963856     -1.64336115      0.00000000
   H          1.86841997     -0.11912221      0.88743942
