30
 
  C   1.36275934969544      3.06622412433063     -0.00000273775616
  C   2.49537920758003      2.24560422630146     -0.00000561598232
  C   -1.36275898109637      3.06622776138390      0.00000518149129
  C   0.00000093850487      2.54756940359113     -0.00000693472941
  C   -0.00000489786674      1.18631289253481     -0.00001621420568
  C   2.42403635237930      0.78819494512245     -0.00000179527966
  C   -2.49536721804579      2.24560686331640      0.00000478198927
  C   3.33705436798745     -0.34960570846426      0.00000740755202
  C   0.69932964531060     -3.28343221856522     -0.00000196235278
  C   -0.69933089324502     -3.28342656852038     -0.00000093697961
  C   1.49629587780281     -2.06181754373554     -0.00000250552160
  C   0.69767480130824     -0.95971425526611     -0.00001324348698
  C   -0.69766424256039     -0.95971304455387     -0.00000934026808
  C   -1.49629371435048     -2.06181510735718     -0.00000441573681
  C   -2.90436970362325     -1.67957329935463      0.00000041905480
  C   -3.33706371811348     -0.34960948661255      0.00000398747385
  C   -2.42403792700015      0.78819262347718     -0.00000155723008
  C   -1.12936533803937      0.36734260403948     -0.00001491260977
  C   2.90437101253422     -1.67956893363710      0.00000978134112
  C   1.12936099183213      0.36734960545061     -0.00001286071733
  H   -3.66930017587061     -2.44613613793116      0.00000384165623
  H   -4.40664407043780     -0.18037476242034      0.00001060707970
  H   -3.45986740795582      2.73781834576484      0.00001574153274
  H   -1.53139956451962      4.13599868824751      0.00001354465564
  H   1.53140681381942      4.13599696152614     -0.00000788901382
  H   3.45986829736489      2.73783776825483     -0.00000530942703
  H   4.40663700198100     -0.18037776417045      0.00002163756527
  H   3.66929590413175     -2.44613586779776      0.00001721951049
  H   1.19255177113082     -4.24748951894907     -0.00000088648247
  H   -1.19255448063808     -4.24748559600575     -0.00000503312285
