           9
 
   C          1.12082648      0.00000000      0.62433053
   C          0.66343964      0.00000000     -0.78668547
   C         -0.66343964      0.00000000     -0.78668547
   C         -1.12082648      0.00000000      0.62433053
   O          0.00000000      0.00000000      1.42741381
   O          2.22312358      0.00000000      1.06365601
   O         -2.22312358      0.00000000      1.06365601
   H          1.35627156      0.00000000     -1.61500798
   H         -1.35627156      0.00000000     -1.61500798
