          23
 
   C         -0.39390143     -1.69644239      2.27886100
   AL        -0.24379943      0.00994361      1.31136900
   C         -0.24379943      1.79560761      2.14028000
   C          1.45659657     -0.21714839      0.00000000
   AL        -0.24379943      0.00994361     -1.31136900
   C         -0.39390143     -1.69644239     -2.27886100
   H         -1.37187343      0.03033761      0.00000000
   C         -0.24379943      1.79560761     -2.14028000
   H         -1.18699243      1.99835061     -2.65257200
   H         -0.09474543      2.59270361     -1.40913500
   H          0.54792857      1.88764761     -2.88835400
   H         -1.29954443     -1.73364839     -2.88820800
   H          0.45100457     -1.84233639     -2.95667500
   H         -0.42011443     -2.55272439     -1.60224100
   H         -1.18699243      1.99835061      2.65257200
   H          0.54792857      1.88764761      2.88835400
   H         -0.09474543      2.59270361      1.40913500
   H         -1.29954443     -1.73364839      2.88820800
   H         -0.42011443     -2.55272439      1.60224100
   H          0.45100457     -1.84233639      2.95667500
   H          1.96282857      0.26658161      0.84542400
   H          1.75754757     -1.26455539      0.00000000
   H          1.96282857      0.26658161     -0.84542400
