           6
 
   C         -0.34279044      0.12114935      0.00000000
   O          1.07909132      0.19851496      0.00000000
   H         -0.72836138     -0.38512784     -0.89071171
   H         -0.72836138     -0.38512784      0.89071171
   H         -0.71334694      1.14449077      0.00000000
   H          1.43376882     -0.69389941      0.00000000
