          16
 
   C         -1.57845173     -0.63319193      0.37344640
   C         -1.57845173      0.63319193     -0.37344640
   C         -0.63319193      1.57845173     -0.37344640
   C          0.63319193      1.57845173      0.37344640
   C          1.57845173      0.63319193      0.37344640
   C          1.57845173     -0.63319193     -0.37344640
   C          0.63319193     -1.57845173     -0.37344640
   C         -0.63319193     -1.57845173      0.37344640
   H         -2.49315774     -0.83882907      0.92587556
   H         -2.49315774      0.83882907     -0.92587556
   H         -0.83882907      2.49315774     -0.92587556
   H          0.83882907      2.49315774      0.92587556
   H          2.49315774      0.83882907      0.92587556
   H          2.49315774     -0.83882907     -0.92587556
   H          0.83882907     -2.49315774     -0.92587556
   H         -0.83882907     -2.49315774      0.92587556
