          14
 
   C          1.42507251      0.06440402     -0.24129951
   H          2.50631589      0.18440707     -0.24356552
   C          0.72622826      0.10396604     -1.38783192
   H          1.22729244      0.27179110     -2.33860526
   C         -0.72622826     -0.10396604     -1.38783192
   H         -1.22729244     -0.27179110     -2.33860526
   C         -1.42507251     -0.06440402     -0.24129951
   H         -2.50631589     -0.18440707     -0.24356552
   C         -0.73180226      0.23941809      1.06773795
   H         -0.76332927      1.32996947      1.23427701
   H         -1.27211045     -0.20986807      1.90928725
   C          0.73180226     -0.23941809      1.06773795
   H          0.76332927     -1.32996947      1.23427701
   H          1.27211045      0.20986807      1.90928725
