          33
 
   N          1.13075100     -2.66737773     -0.11691691
   C         -0.11123300     -2.06981173     -0.15183891
   C          0.03046000     -0.69863673     -0.12412191
   C          1.44130000     -0.44175373     -0.06954491
   C          2.19352400      0.75215127     -0.02182891
   C          3.57625200      0.65198227      0.02533309
   C          4.21918900     -0.61092973      0.02603809
   C          3.49687300     -1.78766773     -0.01946591
   C          2.09921200     -1.69122273     -0.06713391
   H          1.29707800     -3.65658173     -0.13268491
   H         -1.00151300     -2.67507673     -0.19513591
   H          1.69162200      1.70825727     -0.02131391
   H          5.29950400     -0.62516373      0.06402209
   H          4.00237900     -2.74467073     -0.01776891
   O          4.43435700      1.71801427      0.07470109
   C          3.83811600      3.00386827      0.07751709
   H          3.19393900      3.14065827      0.94902209
   H          3.25670300      3.17362427     -0.83154791
   H          4.65797600      3.71439927      0.11951809
   C         -1.04659200      0.34290527     -0.13973491
   C         -2.44958700     -0.24319673     -0.24919291
   N         -3.43282200      0.82663027     -0.26459091
   C         -4.77512700      0.70805727     -0.01550791
   C         -5.22927800     -0.59648673      0.60726009
   H         -0.88003300      1.02379827     -0.98165391
   H         -0.99424200      0.95265027      0.76656809
   H         -2.63846700     -0.88549373      0.60966109
   H         -2.51652100     -0.86304373     -1.14969491
   H         -3.19553900      1.66551127     -0.77221891
   O         -5.55114200      1.61973027     -0.26031991
   H         -4.73602000     -0.76356173      1.56478509
   H         -4.99915700     -1.44207373     -0.04129091
   H         -6.30196200     -0.53948873      0.75908209
