          60
 
   C         -3.73462668      0.25941582      0.97589057
   C         -2.99922693      0.41784643      2.15056906
   C         -2.47767749     -0.92810377      2.48306109
   C         -3.62882727     -1.13450809      0.50561024
   C         -2.75967441     -1.83322034      1.36399150
   C         -3.47181646     -1.12449778     -0.89660207
   C         -3.60080217      1.11649828     -0.16060651
   C         -3.49681786      0.27061222     -1.35141800
   C         -2.76720281      2.23739837     -0.03483340
   C         -2.12969916      1.56960102      2.30863897
   C         -2.01947375      2.46448499      1.19882539
   C         -0.97270577      1.41611451      3.12535034
   C         -1.32637010     -1.06695588      3.20993534
   C         -0.68819045      0.11173111      3.73578998
   C         -0.27889982     -2.00569365      2.77314131
   C         -1.72141863     -2.67134950      0.83234296
   C         -0.43972323     -2.76196101      1.56714062
   C         -2.54507739     -2.02675615     -1.44904861
   C         -1.71078333     -2.82977881     -0.58884354
   C         -1.76606873     -1.64221132     -2.61599020
   C         -2.66970950      0.65525685     -2.40276998
   C         -1.82820504     -0.32425692     -3.08715803
   C         -1.95367405      2.65941580     -1.14956479
   C         -1.92338924      1.90088224     -2.33210478
   C         -0.75040186      3.04830623      0.84432746
   C         -0.72533055      3.19900734     -0.60871505
   C          0.27889982      2.00569365      2.77314131
   C          0.43972323      2.76196101      1.56714062
   C          0.68819045     -0.11173111      3.73578998
   C          0.97270577     -1.41611451      3.12535034
   C          1.32637010      1.06695588      3.20993534
   C          2.12969916     -1.56960102      2.30863897
   C          0.75040186     -3.04830623      0.84432746
   C          2.01947375     -2.46448499      1.19882539
   C         -0.46412133     -3.06791523     -1.30407550
   C         -0.49402024     -2.32823858     -2.55344389
   C          0.72533055     -3.19900734     -0.60871505
   C          0.67095585     -1.71604193     -3.03087513
   C         -0.61058785      0.34260153     -3.50856556
   C         -0.67095585      1.71604193     -3.03087513
   C          0.61058785     -0.34260153     -3.50856556
   C          0.46412133      3.06791523     -1.30407550
   C          0.49402024      2.32823858     -2.55344389
   C          1.72141863      2.67134950      0.83234296
   C          1.71078333      2.82977881     -0.58884354
   C          2.47767749      0.92810377      2.48306109
   C          2.99922693     -0.41784643      2.15056906
   C          2.75967441      1.83322034      1.36399150
   C          3.73462668     -0.25941582      0.97589057
   C          3.62882727      1.13450809      0.50561024
   C          2.76720281     -2.23739837     -0.03483340
   C          1.95367405     -2.65941580     -1.14956479
   C          1.92338924     -1.90088224     -2.33210478
   C          3.60080217     -1.11649828     -0.16060651
   C          1.82820504      0.32425692     -3.08715803
   C          1.76606873      1.64221132     -2.61599020
   C          2.54507739      2.02675615     -1.44904861
   C          3.47181646      1.12449778     -0.89660207
   C          2.66970950     -0.65525685     -2.40276998
   C          3.49681786     -0.27061222     -1.35141800
