14
 
  S   0.98779870405458      1.69086160103578     -0.05066348834743
  N   -1.61020626241202      1.29841557679330     -0.15110636422454
  N   -0.45937754110138     -0.56434099610713      0.46247752051631
  C   -0.39187803613607      0.81146297110409      0.08312164825440
  H   -2.39944662163556      0.68603673671140     -0.07469157169080
  H   -1.71732706237349      2.24968276800537     -0.44737711775701
  H   -0.09355347324586     -0.62431146031493      1.40484970021227
  C   0.35853015001570     -1.43528095502525     -0.38652433348388
  C   0.17576382702346     -2.87823112876741      0.01789791268898
  H   0.02638680315895     -1.29125299608293     -1.41240020244336
  H   1.41001052507674     -1.14570964346512     -0.34147789184360
  H   -0.86056658362450     -3.18390849009666     -0.09862125903260
  H   0.79399441235166     -3.52647688600623     -0.59574030773924
  H   0.46967115884778     -3.03394709778427      1.05528575489050
