11
 
P    -0.0770608    0.4689896   -1.4862555 
C    -1.3395104    0.1768306   -0.3197250 
C    -0.8514019    0.1066278    0.9842027 
C     0.5220411    0.0478119    1.0283668 
C     1.2058839   -0.0304540   -0.2611160 
H    -0.2524244   -0.5540185   -2.4237976 
H    -2.3962741    0.1501510   -0.5586949 
H    -1.4827695    0.1005400    1.8622532 
H     1.0852857    0.0950056    1.9532178 
H     2.1465817    0.5191032   -0.2884670 
H     1.4396486   -1.0805872   -0.4899845 
