30
 
  C   1.30149436985350      2.96786806848520     -0.26057424215634
  C   2.41942815042663      2.15620372388908     -0.26568559339732
  C   -1.30149314129571      2.96786503388931     -0.26059279361017
  C   -0.00000187551314      2.47214545681931      0.11116850531211
  C   0.00000132861668      1.20547663368115      0.65845384018740
  C   2.35042361991902      0.76400505854195      0.10321451842183
  C   -2.41942891884698      2.15619975775518     -0.26570671110947
  C   3.22134549111826     -0.32088292825232     -0.27476172038096
  C   0.69096415258723     -3.16876247842328     -0.25717276081186
  C   -0.69096343350431     -3.16875759788659     -0.25717362552848
  C   1.45142195802312     -1.99919490965112      0.10476466899007
  C   0.70863817599408     -0.97411585495772      0.65549158699436
  C   -0.70863985354738     -0.97411523060782      0.65550169333635
  C   -1.45142263492768     -1.99919732331462      0.10478104692642
  C   -2.79323535633011     -1.63506638405813     -0.27483067928339
  C   -3.22133331137818     -0.32088252967930     -0.27476908583325
  C   -2.35042165722323      0.76400709650919      0.10321189381006
  C   -1.14706179920373      0.37320053045639      0.65602357533592
  C   2.79322475831020     -1.63506037967111     -0.27486775365270
  C   1.14706376926086      0.37319806877875      0.65602419078257
  H   -4.20584855606427     -0.09870443053584     -0.66784970096202
  H   -3.45805823859335     -2.39593098540519     -0.66504585026725
  H   -1.20826015175307     -4.04177979595078     -0.63550032202235
  H   1.20825756079012     -4.04178595318664     -0.63550091087213
  H   3.45804023081108     -2.39592632728975     -0.66509071636523
  H   4.20586051445875     -0.09870394909331     -0.66784249454036
  H   3.34722901837519      2.55812988051497     -0.65428884821268
  H   1.39524424063747      3.97623194596615     -0.64502598961953
  H   -1.39523761995330      3.97622027066820     -0.64506731534813
  H   -3.34723079104777      2.55811753200870     -0.65431840612346
