           7
 
   S          0.00000000      0.00000000      1.59689538
   C          0.00000000     -0.73865087     -0.08529881
   C          0.00000000      0.73865087     -0.08529881
   H          0.91267842     -1.25059718     -0.35657444
   H         -0.91267842     -1.25059718     -0.35657444
   H         -0.91267842      1.25059718     -0.35657444
   H          0.91267842      1.25059718     -0.35657444
