          13
 
   C         -2.66081929     -0.21939521      0.00000000
   C         -1.49350815      0.43118804      0.00000000
   C         -0.18979296     -0.20868086      0.00000000
   C          0.97455687      0.45065715      0.00000000
   C          2.32822464     -0.18539183      0.00000000
   H         -2.70660001     -1.30332571      0.00000000
   H         -3.60561521      0.30906128      0.00000000
   H         -1.49500860      1.51910372      0.00000000
   H         -0.18242592     -1.29737851      0.00000000
   H          0.95408431      1.53914745      0.00000000
   H          2.26082019     -1.27496125      0.00000000
   H          2.90804206      0.11998787      0.87751072
   H          2.90804206      0.11998787     -0.87751072
