          13
 
   O          1.80918288     -1.48197632     -0.13563937
   P          1.64426933      0.11003422     -0.02161273
   O          2.62578344      0.89602816     -0.77013022
   O          0.11515077      0.34531982     -0.62604247
   P         -1.28269265      0.12043285      0.12727966
   O         -1.13992226      0.08855444      1.59898901
   O         -2.22040995      1.24159820     -0.50834791
   O         -1.92869837     -1.20324705     -0.45237675
   O          1.48219368      0.38322654      1.51502256
   H          2.40822260     -1.70928404     -0.86653892
   H         -1.95592225      2.14725276     -0.27254575
   H         -2.09204168     -1.18205223     -1.41071749
   H          0.53488444      0.24411265      1.82266037
