          16
 
   H         -0.14488305      1.24400044      2.88882353
   C         -0.07937003      0.72142926      1.93826519
   C         -0.12869305      1.40898550      0.77551778
   C          0.07937003     -0.72142926      1.93826519
   C          0.12869305     -1.40898550      0.77551778
   H          0.14488305     -1.24400044      2.88882353
   H         -0.22121808      2.49234589      0.77554378
   C         -0.00672700      0.74846727     -0.52330869
   C          0.00672700     -0.74846727     -0.52330869
   H          0.22121808     -2.49234589      0.77554378
   C          0.12869305      1.49744753     -1.64147408
   C         -0.12869305     -1.49744753     -1.64147408
   H          0.08954603      2.58173092     -1.59097507
   H          0.29445710      1.06448038     -2.62239243
   H         -0.29445710     -1.06448038     -2.62239243
   H         -0.08954603     -2.58173092     -1.59097507
