9

   C     1.132713    2.266100    0.000000
   I     0.000000    0.461816    0.000000
   H     1.749184    2.283461    0.891542
   H     0.439256    3.099395    0.000000
   H     1.749184    2.283461   -0.891542
   O    -1.219786   -2.471129    0.000000
   C    -0.239853   -3.163074    0.000000
   H     0.774926   -2.727378    0.000000
   H    -0.311418   -4.264298    0.000000
