          10
 
   C         -1.84269656     -0.11821556      0.00000000
   C         -0.60989395      0.39584742      0.00000000
   C          0.60989395     -0.39584742      0.00000000
   C          1.84269656      0.11821556      0.00000000
   H         -2.01011690     -1.19008798      0.00000000
   H         -2.72188018      0.51347962      0.00000000
   H         -0.48338197      1.47603489      0.00000000
   H          0.48338197     -1.47603489      0.00000000
   H          2.01011690      1.19008798      0.00000000
   H          2.72188018     -0.51347962      0.00000000
