          24
 
   C          0.83660785     -0.22447842      1.12131114
   C          0.38256614     -1.35878616      0.18126712
   C         -0.59186519     -0.88901852     -0.92509858
   O         -0.15285330      0.32316202     -1.57075693
   C          1.26414229      1.01291699      0.31063299
   C          0.24595648      1.42540311     -0.77921665
   O         -0.81174851      2.17509598     -0.24449361
   O          1.52054555     -1.99625049     -0.38583068
   C         -2.08223126     -0.85407639     -0.55296492
   H         -1.54637354      1.56562336      0.00815162
   O         -2.46122199      0.10588577      0.43434039
   H          2.12042623     -1.29929431     -0.71142310
   H         -1.91964843     -0.04722817      1.23607236
   O         -0.24040672      0.05813989      2.02784418
   O          2.52080452      0.64123780     -0.27613948
   H          0.75675937      2.09008930     -1.48843634
   H         -0.11757540     -2.12568894      0.78349308
   H          2.78706060      1.31321796     -0.92432132
   H         -0.51173716     -1.64400149     -1.71584759
   H         -2.65403671     -0.59659198     -1.44843562
   H         -0.07330011      0.89763638      2.48610530
   H          1.70354653     -0.58403066      1.68835459
   H          1.40504726      1.87532489      0.97940013
   H         -2.38046448     -1.86428792     -0.23400807
