12
6HF (cyc) (Full point group S6)
H -0.829028 1.947972 0.063739
H -2.101507 0.256027 -0.063739
H 0.829028 -1.947972 -0.063739
H 1.272479 1.691945 -0.063739
H -1.272479 -1.691945 0.063739
H 2.101507 -0.256027 0.063739
F 2.077176 1.199258 -0.275173
F 0.000000 2.398517 0.275173
F 0.000000 -2.398517 -0.275173
F -2.077176 1.199258 -0.275173
F -2.077176 -1.199258 0.275173
F 2.077176 -1.199258 0.275173
