13

   N     0.000000    0.000000    3.729184
   C     0.000000    0.000000    4.870501
   H     0.000000    0.000000    5.938144
   N     0.000000    0.000000   -0.917480
   O     0.000000    2.283413   -1.311833
   O     0.000000   -2.283413   -1.311833
   C     0.000000   -1.151535   -1.703478
   C     0.000000   -0.661645   -3.122613
   C     0.000000    0.661645   -3.122613
   H     0.000000    1.349180   -3.954052
   H     0.000000   -1.349180   -3.954052
   C     0.000000    1.151535   -1.703478
   Br    0.000000    0.000000    0.913356
