          33
 
   N         -1.88974755     -2.93704879     -0.03175261
   C         -0.52795855     -3.03804179     -0.23016861
   C          0.02800445     -1.78428379     -0.33445461
   C         -1.05608755     -0.84907579     -0.19326061
   C         -1.11726055      0.55252921     -0.21773461
   C         -2.35470255      1.16641221     -0.05961161
   C         -3.52987855      0.40245421      0.12326339
   C         -3.48266855     -0.98788179      0.14935939
   C         -2.24166055     -1.60427279     -0.00988961
   H         -2.52359255     -3.71050479      0.04423839
   H         -0.05337155     -4.00446979     -0.29012661
   H         -0.23263555      1.16228221     -0.35470661
   H         -4.48553755      0.88819921      0.24541939
   H         -4.39029355     -1.56116079      0.28847939
   O         -2.34508755      2.53807421     -0.09395861
   C         -3.58938355      3.19538821      0.06099539
   H         -4.04404955      2.97245121      1.02914339
   H         -4.28748355      2.92744321     -0.73558561
   H         -3.37294555      4.25809221      0.00409739
   C          1.46877045     -1.42983079     -0.51936461
   C          2.06852645     -0.84132579      0.76614939
   N          3.39650645     -0.28416879      0.56606539
   C          3.56064645      0.94275221     -0.00356061
   C          4.99516445      1.37292221     -0.23500261
   H          1.56916545     -0.68291979     -1.30933861
   H          2.04254745     -2.30922379     -0.82130061
   H          2.12814545     -1.60793579      1.53873639
   H          1.42614645     -0.04292379      1.13252839
   H          4.20419445     -0.86039579      0.71564439
   O          2.61296845      1.65580021     -0.30687061
   H          5.16739145      1.44757721     -1.30751061
   H          5.72435245      0.68976321      0.19704139
   H          5.13181445      2.36332321      0.19303639
