          17
 
   C          0.00000000      2.53299600      0.30165900
   C          0.00000000      1.27182800     -0.55188200
   C          0.00000000      0.00000000      0.28528000
   C          0.00000000     -1.27182800     -0.55188200
   C          0.00000000     -2.53299600      0.30165900
   H          0.00000000      3.43387100     -0.30989000
   H          0.87444300     -1.26924400     -1.20653700
   H         -0.87444300     -1.26924400     -1.20653700
   H          0.87962700      2.56514100      0.94437200
   H         -0.87962700      2.56514100      0.94437200
   H         -0.87513300      0.00000000      0.94180300
   H          0.87513300      0.00000000      0.94180300
   H         -0.87444300      1.26924400     -1.20653700
   H          0.87444300      1.26924400     -1.20653700
   H          0.00000000     -3.43387100     -0.30989000
   H          0.87962700     -2.56514100      0.94437200
   H         -0.87962700     -2.56514100      0.94437200
