          10
 
   H          1.88187897     -0.99345935     -0.43554356
   C          1.06487468     -0.51861718      0.11906264
   C         -1.06559108     -0.51780918     -0.11929244
   C          0.68378954      0.84034730     -0.08393443
   C         -0.68289794      0.84086830      0.08354363
   H         -1.88269037     -0.99191235      0.43581176
   H         -1.33865918      1.64958959      0.40321074
   H          0.87072861     -0.97895635      1.08054498
   H         -0.87195801     -0.97868835     -1.08060578
   H          1.34052478      1.64863759     -0.40279754
