          17
 
   SI         0.63139882      1.11515946     -2.08532509
   SI         0.70367211      3.03950585     -0.74426822
   SI         0.72098415     -0.80137417     -0.73468811
   SI        -0.98629872     -0.76030614      0.87495890
   SI        -0.97816786     -2.70740752      2.18359262
   H         -0.64069283      1.10177051     -2.85748331
   H          1.75799151      1.13021999     -3.05821548
   H          2.03398885     -0.84830542     -0.03537272
   H          0.59965934     -2.03650052     -1.55645950
   H         -2.30080281     -0.61638052      0.19167503
   H         -0.79668872      0.43302196      1.74382641
   H         -2.04896456     -2.68052224      3.21359881
   H         -1.18525729     -3.89507069      1.31545383
   H          0.33354792     -2.84638300      2.86709877
   H          0.72729741      4.27621811     -1.56737460
   H         -0.49036840      3.07975610      0.13832947
   H          1.91870108      3.01659825      0.11065319
