          33
 
   N          1.23852182     -2.77212321      0.00666221
   C         -0.04831018     -2.32296821     -0.20255079
   C         -0.05115818     -0.94760821     -0.30596879
   C          1.31374282     -0.53136621     -0.15061079
   C          1.93087982      0.73841379     -0.16038979
   C          3.30453482      0.79872179      0.02321321
   C          4.06973482     -0.37850821      0.21546621
   C          3.48009382     -1.62785421      0.22776721
   C          2.09210382     -1.69348821      0.04261321
   H          1.50509682     -3.73329721      0.11390721
   H         -0.86222318     -3.02623921     -0.26272879
   H          1.33612382      1.62755479     -0.30794979
   H          5.13628982     -0.26800321      0.35331521
   H          4.07811982     -2.51769721      0.37597221
   O          4.03953382      1.95401679      0.03805721
   C          3.31744882      3.15933079     -0.14916079
   H          2.57686382      3.30497179      0.64044421
   H          2.81767182      3.17571779     -1.12031379
   H          4.05157882      3.95814279     -0.10742279
   C         -1.22202518     -0.03966321     -0.53149279
   C         -2.55130318     -0.78488721     -0.66117079
   N         -3.68475018      0.09576579     -0.87526879
   C         -4.42784918      0.72462779      0.08903221
   C         -4.23144118      0.24709579      1.51463721
   H         -1.06379918      0.55272779     -1.43823679
   H         -1.29952218      0.67902579      0.28991421
   H         -2.73331418     -1.38079321      0.23163821
   H         -2.50076918     -1.48086821     -1.50011379
   H         -3.80503018      0.49459279     -1.79340879
   O         -5.23173618      1.59924879     -0.19828579
   H         -4.86130718      0.85409379      2.15638021
   H         -3.19332618      0.34067479      1.83223521
   H         -4.52047418     -0.79935821      1.61381821
