          14
 
   C          1.24499916      0.00000000     -0.66342581
   C          0.00000000      0.00000000     -1.48950112
   C         -1.24499916      0.00000000     -0.66342581
   C         -1.24499916      0.00000000      0.66342581
   C          0.00000000      0.00000000      1.48950112
   C          1.24499916      0.00000000      0.66342581
   H          2.19097476      0.00000000     -1.19755625
   H          0.00000000      0.86814192     -2.16415289
   H          0.00000000     -0.86814192     -2.16415289
   H         -2.19097476      0.00000000     -1.19755625
   H         -2.19097476      0.00000000      1.19755625
   H          0.00000000     -0.86814192      2.16415289
   H          0.00000000      0.86814192      2.16415289
   H          2.19097476      0.00000000      1.19755625
