          33
 
   N          0.37878652      2.39730797     -0.37264470
   C         -0.67689948      1.53449097     -0.57843670
   C         -0.26898848      0.23520897     -0.36359970
   C          1.11778652      0.30715197      0.00245830
   C          2.07789152     -0.66713403      0.33462930
   C          3.35714452     -0.24897003      0.65667730
   C          3.70978851      1.11929197      0.65391530
   C          2.78422052      2.09540097      0.32076330
   C          1.49002352      1.67375997     -0.00753770
   H          0.32020652      3.39834497     -0.41242970
   H         -1.64375648      1.91882797     -0.85954070
   H          1.84060752     -1.72261203      0.35862930
   H          4.71667552      1.39463697      0.93741530
   H          3.05586052      3.14305697      0.32691330
   O          4.29995252     -1.18932403      1.03247630
   C          5.24385652     -1.45884503     -0.00061070
   H          4.74478752     -1.86161203     -0.88534270
   H          5.79288651     -0.55756803     -0.28200270
   H          5.93776252     -2.19611403      0.39450230
   C         -1.07067748     -1.02586003     -0.51158470
   C         -2.57009848     -0.79029603     -0.66386470
   N         -3.10474548     -0.17011003      0.53739230
   C         -4.42697748      0.02250297      0.83332730
   C         -5.41887848     -0.68542103     -0.06759070
   H         -0.72167449     -1.58334303     -1.38518570
   H         -0.90349948     -1.66840203      0.35723530
   H         -2.75277149     -0.17285003     -1.55069870
   H         -3.06373849     -1.74765503     -0.82751970
   H         -2.46971648      0.37924197      1.09659930
   O         -4.77841748      0.70776197      1.78268930
   H         -6.41935048     -0.42792603      0.26361630
   H         -5.29115548     -0.38674003     -1.10827870
   H         -5.28689148     -1.76620403     -0.01237170
