59
 
H    -1.3715851    4.9435847   -2.6364953 
O    -1.2788111    4.4708277   -1.7944902 
C     0.0789684    4.6154206   -1.3506670 
H     0.2460198    5.6192238   -0.9379794 
H     0.7850697    4.4512424   -2.1747294 
C     0.3679860    3.5785512   -0.2905343 
H     1.4099897    3.7006586    0.0338149 
O    -0.4991118    3.7688297    0.8678693 
C    -0.8468015    2.5178640    1.4285836 
H    -0.6103769    2.4971938    2.4939812 
N    -2.3271224    2.3244293    1.3139827 
C    -3.1077939    3.1019786    0.4979676 
H    -2.5662380    3.8470081   -0.0740163 
C    -4.4535376    2.9420316    0.4121630 
H    -5.0444714    3.5704765   -0.2411319 
C    -5.1141169    1.9336690    1.1995371 
O    -6.3271571    1.6896096    1.2295348 
N    -4.2359031    1.1810376    1.9960650 
H    -4.6495997    0.4514297    2.5706494 
C    -2.8676830    1.3075749    2.0937689 
O    -2.1733494    0.5838467    2.8085870 
C     0.1283403    2.1248737   -0.6948155 
H    -0.7711931    2.0508149   -1.3143486 
C    -0.0864894    1.4344699    0.6535078 
H    -0.6637725    0.5099684    0.5775128 
O     1.1562417    1.2045094    1.3171017 
H     1.7903690    0.9421123    0.6229841 
O     1.2539796    1.6129642   -1.4164281 
P     0.9446755    0.6006141   -2.6794070 
O     2.2819145    0.2866009   -3.2755985 
O    -0.1852004    1.1163844   -3.5188467 
O     0.4201319   -0.6645525   -1.7700763 
C    -0.2781894   -1.7585473   -2.3916340 
H     0.1582066   -1.9895832   -3.3697585 
H    -1.3344246   -1.4978761   -2.5228456 
C    -0.1702500   -2.9676570   -1.4877779 
H    -0.8136665   -3.7596362   -1.8918326 
O     1.2013608   -3.4570053   -1.4698383 
C     1.5597582   -3.8827302   -0.1715622 
H     1.9913199   -4.8840307   -0.2068110 
N     2.6231308   -2.9779045    0.3681770 
C     2.8826972   -1.7516780   -0.1843954 
H     2.2531799   -1.4883009   -1.0253762 
C     3.8506630   -0.9271126    0.2902088 
H     4.0392502    0.0299301   -0.1790991 
C     4.6608789   -1.3348903    1.4090064 
O     5.5623479   -0.6823411    1.9489434 
N     4.3517255   -2.6205984    1.8846625 
H     4.9066147   -2.9670867    2.6634253 
C     3.3817380   -3.4828605    1.4202791 
O     3.1879144   -4.6012542    1.8960867 
C    -0.5244234   -2.7397618   -0.0168105 
H    -0.1835907   -1.7515496    0.3087730 
C     0.2929994   -3.8369632    0.6889960 
H     0.5134745   -3.6089998    1.7374106 
O    -0.3671104   -5.0960072    0.5673953 
H    -1.3248092   -4.8980633    0.5939688 
O    -1.9331641   -2.8786579    0.1636022 
H    -2.1710032   -2.5040817    1.0287601 
