           9
 
   C         -0.98933166     -0.29051107      0.00000000
   C          0.55543616     -0.29603058      0.00000000
   C          1.07912970      1.02669316      0.00000000
   O          1.45500042      2.07406061      0.00000000
   H         -1.30133718     -1.33424428      0.00000000
   H         -1.38003424      0.19556271     -0.89233541
   H         -1.38003424      0.19556271      0.89233541
   H          0.98058552     -0.78554663     -0.88866651
   H          0.98058552     -0.78554663      0.88866651
