29
Coordinates from ORCA-job xal
  N   1.31082168369435     -0.97679773516045      0.68792954289199
  C   -0.00060080832946     -0.42090492481568      0.38151266764358
  C   0.07629059143970      1.10873492958814      0.30460331073873
  O   -0.43715344414055      1.85073305043137      1.14272077783388
  C   -0.99494987838426     -0.91813095805926      1.42051405758208
  C   -2.41818876885075     -0.38201604816009      1.23470324959039
  C   -2.81781582739064     -0.46207830515791     -0.22193375946255
  O   -3.03294141199013     -1.52428384560413     -0.78820011715303
  H   1.51254267211523     -1.21348279045565      1.64466333571593
  H   -0.27351846087812     -0.79757522798523     -0.60645220428450
  H   -1.00781000823033     -2.00625240996582      1.35612332478608
  H   -0.64406732751925     -0.63549036964790      2.41490568851347
  H   -3.10881404840143     -1.00535225567398      1.79918662021670
  H   -2.47491430494219      0.63702203037723      1.60409992601374
  C   2.25617669069390     -1.19368783043316     -0.25777732731591
  O   2.09737327330075     -0.86666548986914     -1.43457174263926
  N   0.75213665553396      1.55683793749663     -0.77086002015641
  H   1.22686850092770      0.86384909382002     -1.33977079348143
  C   1.00805503553632      2.96994818812101     -0.94669273562445
  H   1.36190299130018      3.13982907407444     -1.95888543839224
  H   0.09116153930528      3.53101034358433     -0.78544711576810
  H   1.75246992849089      3.33731968298435     -0.24034553244002
  C   3.51652232808897     -1.87135599835858      0.21404020173803
  H   3.61645483716039     -2.81447998451005     -0.31829851221130
  H   3.52869825433151     -2.06160150704651      1.28414307449768
  H   4.36689511429024     -1.24937303364113     -0.05355223552985
  N   -2.87794582862120      0.74174796631945     -0.85628628894267
  H   -3.02602453597413      0.74875782098998     -1.85034975164383
  H   -2.56694044255694      1.57759959675770     -0.39534120271673
