          51
 
   C         -4.15324431     -1.68877865      0.63418256
   C         -5.42960808     -0.82312404      0.68859824
   C         -5.07851249      0.66823658      0.75162482
   C         -4.20386451      1.05688257     -0.45772187
   C         -2.96547437      0.18791911     -0.57371166
   C         -3.22740221     -1.26841513     -0.49466850
   C          1.03567903      2.06320099     -1.19680065
   C          0.75601265      0.60199756     -0.90783310
   C         -0.46608629      0.05383979     -0.71155149
   C         -1.73349296      0.74983439     -0.68963202
   C          2.05596435      2.67934157     -0.20345474
   C          2.03108519     -0.19051096     -0.83577151
   C          3.33292443      1.82396958     -0.07409302
   C          2.99327659      0.36512905      0.26369699
   C          2.03072031     -1.70772598     -0.58977813
   C          4.17225389     -0.62837233      0.11733209
   C          2.35611944      0.26821505      1.66409618
   C          3.47425185     -2.00874939     -0.07632564
   C         -2.72567474     -2.15746015     -1.36690897
   O         -6.24804789      1.49675627      0.84511342
   C          5.21318120     -0.61027587      1.23738081
   H         -4.41102558     -2.75078027      0.53678696
   H         -3.61646971     -1.56535031      1.58880537
   H         -6.03231433     -1.00141642     -0.21668940
   H         -6.04177656     -1.09262106      1.55845459
   H         -4.52019220      0.86961466      1.67544147
   H         -4.82936973      0.92435840     -1.35944936
   H         -3.93215902      2.11724188     -0.39094708
   H          0.12085866      2.66465011     -1.20666043
   H          1.47106909      2.12740388     -2.20864913
   H         -0.51442222     -1.01988493     -0.54244611
   H         -1.70601280      1.83937886     -0.73197133
   H          2.31598872      3.69300001     -0.53714974
   H          1.58038923      2.77848698      0.78117713
   H          2.56538711     -0.01282095     -1.78713770
   H          3.87815158      1.83869102     -1.03125017
   H          3.99752128      2.25281478      0.68974561
   H          1.77475367     -2.26979548     -1.49536360
   H          1.29213506     -1.96808374      0.17752156
   H          4.67677518     -0.36506071     -0.82542480
   H          1.37937680      0.76208660      1.68647160
   H          2.20777037     -0.77638130      1.96138643
   H          3.00637661      0.74427714      2.40865698
   H          4.03802937     -2.63697285     -0.77631838
   H          3.43816539     -2.54693747      0.87995960
   H         -2.95735769     -3.21880464     -1.27982675
   H         -2.08213360     -1.84403500     -2.18600517
   H         -6.76151222      1.35173894      0.03671268
   H          4.76303074     -0.90798484      2.19320245
   H          6.03092991     -1.31011306      1.01802125
   H          5.64797582      0.39138976      1.35917167
