          60
 
   C         -0.62673075     -4.63813425      0.00000000
   C          0.16472861     -4.24830732     -1.14659389
   C          1.49684691     -3.94667910     -0.73853806
   C          0.16472861     -4.24830732      1.14659389
   C          1.49684691     -3.94667910      0.73853806
   C         -0.53342774     -3.25883775      1.91025534
   C         -1.78336323     -3.81733289      0.00000000
   C         -1.78538343     -3.01192753      1.19650819
   C         -0.53342774     -3.25883775     -1.91025534
   C         -1.78538343     -3.01192753     -1.19650819
   C          0.15455501     -2.14665496     -2.49299859
   C          2.14360766     -2.77298901     -1.18004919
   C          1.54124672     -1.86354244     -2.13008626
   C          2.14360766     -2.77298901      1.18004919
   C          2.76417611     -2.18524486      0.00000000
   C          0.15455501     -2.14665496      2.49299859
   C          1.54124672     -1.86354244      2.13008626
   C         -0.66600535     -1.03859458      2.84575791
   C         -2.42472398     -1.73485763      1.23487229
   C         -1.99801855     -0.87480427      2.26684887
   C         -2.42472398     -1.73485763     -1.23487229
   C         -2.92241452     -1.12972739      0.00000000
   C         -0.66600535     -1.03859458     -2.84575791
   C         -1.99801855     -0.87480427     -2.26684887
   C         -0.15248881      0.25507002     -3.11563813
   C          2.01253615     -0.47840694     -2.17373256
   C          1.20487049      0.57775694     -2.79324581
   C          3.13294854     -0.87871427      0.00000000
   C          2.93517692     -0.05176870     -1.16881769
   C          2.01253615     -0.47840694      2.17373256
   C          2.93517692     -0.05176870      1.16881769
   C         -0.15248881      0.25507002      3.11563813
   C          1.20487049      0.57775694      2.79324581
   C         -2.32015847      0.52064134      2.27131107
   C         -1.23149559      1.22663209      2.89568252
   C         -3.20135564      0.25988672      0.00000000
   C         -2.96504502      1.08826258      1.16408979
   C         -2.32015847      0.52064134     -2.27131107
   C         -1.23149559      1.22663209     -2.89568252
   C         -2.96504502      1.08826258     -1.16408979
   C         -0.95604917      2.54010709     -2.54634019
   C          1.47859721      1.95250345     -2.49454819
   C          0.41319173      2.93219732     -2.47865829
   C          3.02824043      1.31382300     -0.73101476
   C          3.02824043      1.31382300      0.73101476
   C          2.36982428      2.32021287     -1.42640691
   C          1.47859721      1.95250345      2.49454819
   C          2.36982428      2.32021287      1.42640691
   C         -0.95604917      2.54010709      2.54634019
   C          0.41319173      2.93219732      2.47865829
   C         -2.61370870      2.43065388      0.72803755
   C         -2.61370870      2.43065388     -0.72803755
   C         -1.66130223      3.17969334     -1.42754441
   C         -1.66130223      3.17969334      1.42754441
   C          0.58229944      3.84046129     -1.39246150
   C          1.78291923      3.46052416     -0.69825245
   C          1.78291923      3.46052416      0.69825245
   C          0.58229944      3.84046129      1.39246150
   C         -0.68246395      3.98346410     -0.70455105
   C         -0.68246395      3.98346410      0.70455105
