          19
 
   P          1.27952600     -0.01144000     -0.14653100
   B         -2.00713600      0.02465300     -0.47234100
   C          1.58390400      1.74259700      0.11421200
   C          0.85524200     -0.85028600      1.38011800
   C          2.79487500     -0.75615100     -0.80178700
   H          2.39103600      1.87069900      0.83770000
   H          1.86920600      2.20491900     -0.83192900
   H          0.66180400      2.19148500      0.47930500
   H          3.61054100     -0.64280600     -0.08591300
   H          2.62552400     -1.81817100     -0.98540800
   H          3.07089300     -0.27291600     -1.74008900
   H          1.70852900     -0.80616000      2.06016700
   H          0.59555800     -1.88266500      1.14855300
   H         -0.02334800     -0.36503300      1.79873000
   F         -1.26129300      0.95481300      0.38091300
   F         -1.56960400     -1.28213700     -0.08130900
   F         -3.35772800      0.18189400     -0.24590300
   H          0.29732500     -0.17644500     -1.11935500
   H         -1.67078400      0.23733100     -1.64064800
