           7
 
   BI         1.43203157     -0.38637557     -0.36532657
   H          3.00488557      0.32179743      0.04762843
   H          0.75828157      1.23719643     -0.51139257
   H          1.01213957     -0.40655857      1.34658643
   O         -1.80438343     -0.39004357     -0.42772357
   H         -1.91003843      0.50882643     -0.10984257
   H         -2.49291643     -0.88484257      0.02007043
