33
Coordinates from ORCA-job xab
  N   0.87996407817677      0.70373137350217     -0.51130603911796
  C   1.10704505190687     -0.55461340188846      0.18358223588806
  C   2.53243112918119     -1.06013262943887     -0.07940657779235
  O   2.76690306835538     -2.01908400359227     -0.80809095587357
  C   0.07718332597924     -1.58491824097548     -0.26644423068836
  C   -1.32238120806726     -1.05727566141802     -0.13752798495629
  C   -2.07592783326292     -0.72619729130547     -1.26740072577026
  C   -1.89158914524069     -0.82886443284274      1.11809780407201
  C   -3.35242676925599     -0.18162063172407     -1.15826252546640
  C   -3.16675389048815     -0.28680812921063      1.24281793183861
  C   -3.90005447582745      0.04280723563694      0.10221592705845
  O   -5.15467164553367      0.58022153035192      0.15896195351156
  H   0.26422698891064      0.69669231409951     -1.30798606054292
  H   1.00110219181917     -0.34780853404640      1.25099335864998
  H   0.29514283506076     -1.86478954515857     -1.29734108689804
  H   0.21986335223807     -2.48487568420121      0.33175679441562
  H   -1.66547895239432     -0.91529276195742     -2.25261120886946
  H   -1.33556164336775     -1.08011079194149      2.01327826557229
  H   -3.93449893291153      0.06698800324029     -2.03455360031994
  H   -3.59268956741790     -0.12109208436734      2.22540858749792
  H   -5.40384281545473      0.66587445760642      1.08499563491722
  N   3.48006479483537     -0.34829084317738      0.56680851998180
  H   3.17893939436359      0.51000898089870      1.01448876183532
  C   4.88363246084263     -0.61129548639952      0.33472406447528
  H   5.22197820909921     -0.20587245732064     -0.61938976545881
  H   5.46574874682641     -0.16715242893750      1.13668253504041
  H   5.04710373082592     -1.68503745722892      0.32074555446349
  C   1.21384702365362      1.89626370012125      0.03660111024426
  O   1.87545519057015      1.98194332047394      1.07275047692324
  C   0.72162499270071      3.11678536522669     -0.69686588872461
  H   0.01691199410728      3.64009882528536     -0.05402369471367
  H   0.23599868451106      2.88135438796913     -1.64048146876421
  H   1.56330963525831      3.78057600272006     -0.87605370242867
