14

   N    -0.000811    3.847110    0.000000
   H    -0.472573    4.207199    0.817797
   H    -0.472573    4.207199   -0.817797
   H     0.944485    4.204703    0.000000
   Br    0.000153    1.184226    0.000000
   C    -1.148036   -1.452575    0.000000
   N     0.000000   -0.666147    0.000000
   O    -2.282186   -1.062991    0.000000
   O     2.282189   -1.062869    0.000000
   C     1.148059   -1.452528    0.000000
   C     0.661620   -2.873890    0.000000
   C    -0.661512   -2.873919    0.000000
   H    -1.349891   -3.704731    0.000000
   H     1.350046   -3.704663    0.000000
