           6
 
   C          0.00000024      0.48549076      0.00000000
   H          1.05342810      0.73734579      0.00000000
   H         -0.52662690      0.73770298      0.91224866
   H         -0.52662690      0.73770298     -0.91224866
   H         -0.00025976     -0.89709276      0.00000000
   H          0.00008524     -1.80114975      0.00000000
