6
 
  O      0.37914126      1.17006536     -0.63503913
  H     -0.13413605      1.61143182     -1.32322936
  N     -1.06750105      0.05997920      1.41694900
  H     -0.73623194     -0.89988195      1.43112069
  H     -0.65329102      0.48808552      2.23939266
  H     -0.56988127      0.51320705      0.58796765
