          11
 
   C         -1.14801349     -0.57975568      0.03120696
   C         -1.08021984      0.78192529      0.02639005
   N          1.30543743      1.13121591      0.11743732
   N          1.57534155     -0.09591016      0.00445069
   C          1.06337833     -1.19481227      0.00478589
   H         -1.31347505     -1.11800370      0.95840071
   H         -1.34813898     -1.12998002     -0.87963506
   H         -1.11376040      1.35419025      0.94257550
   H         -1.16281172      1.34381802     -0.89587363
   H          1.77093124      1.66037919     -0.62483756
   H          1.45133094     -2.15306682      0.31509914
