           9
 
   C         -1.13154352     -0.12649927      0.00000000
   C          0.23304193      0.49271231      0.00000000
   C          1.38054570     -0.17642706      0.00000000
   H         -1.07698797     -1.21687459      0.00000000
   H         -1.70535978      0.18729970     -0.87791421
   H         -1.70535978      0.18729970      0.87791421
   H          0.26184668      1.58045989      0.00000000
   H          1.40734333     -1.26159318      0.00000000
   H          2.33647341      0.33362251      0.00000000
