           6
 
   C          0.00000000      0.00000000      0.48865291
   C          0.00000000      0.00000000     -0.96688364
   N          0.00000000      0.00000000     -2.11787974
   H          0.51196226     -0.88674465      0.86537016
   H          0.51196226      0.88674465      0.86537016
   H         -1.02392452      0.00000000      0.86537016
