16
 
N    -2.0046163    0.6861041    0.0000000 
N    -0.0968130    2.1038790    0.0000000 
N     1.2034707   -1.1411147    0.0000000 
N     1.9750972    0.8740492    0.0000000 
N    -1.9641510   -1.5978842    0.0000000 
C     2.3025314   -0.4090569    0.0000000 
C     0.5985601    0.9924758    0.0000000 
C    -1.3035570   -0.4412096    0.0000000 
C    -1.4016462    1.8656012    0.0000000 
C     0.1024794   -0.2995120    0.0000000 
H     2.6239007    1.6523305    0.0000000 
H    -2.9720449   -1.5660329    0.0000000 
H    -1.5271569   -2.5011982    0.0000000 
H    -2.0523590    2.7320767    0.0000000 
H     3.3087191   -0.7987785    0.0000000 
H     1.2075855   -2.1517294    0.0000000 
