  192
** Geometry step: 185, Lattice step: 8
    B     -4.95665713     14.54709775      1.90469846      2.72758147
    B      5.05154848     14.58224338      1.90657520      2.72787035
    B      0.02337234     23.22269497      1.90680343      2.72952924
    B     20.13313842     11.61072086      1.90939812      2.73225985
    B     10.13452935     11.64921911      1.90615424      2.72800805
    B     15.10901060      2.96431801      1.90670064      2.72803789
    O     16.27210648      3.73198113      1.90711357      6.23032824
    O     18.88778106     12.23592528      1.90952383      6.23520834
    O     10.21480107     10.25837765      1.90534975      6.22970555
    O     -1.13569575     22.44974496      1.90604964      6.23120399
    O     -3.70781395     13.92893781      1.90430575      6.23025643
    O      4.96037623     15.97313826      1.90729901      6.23513665
    O     -4.87335568     15.93812800      1.90423548      6.22974582
    O      1.18748967     22.45614279      1.90719374      6.23675885
    O      3.80685988     13.95646133      1.90561486      6.23005539
    O     20.04307483     10.22042419      1.90954218      6.23263275
    O     13.94926091      3.73643501      1.90607660      6.23018073
    O     11.38477175     12.26528041      1.90707098      6.23233780
    C     21.43083365     12.35735912      1.90857348      4.09311985
    C      8.84043422     12.40230413      1.90616336      4.08675666
    C     15.11050216      1.46697531      1.90700843      4.08316497
    C     -6.25350100     13.79850735      1.90600941      4.08011977
    C      6.35096692     13.83845507      1.90655334      4.08926596
    C      0.02198545     24.71992331      1.90702696      4.09093038
    C     13.91247287      0.72249141      1.90844327      4.03277017
    C     22.67296837     11.68894186      1.90846711      4.03030678
    C      8.79643241     13.81205449      1.90723675      4.02313499
    C      1.22015266     25.46449141      1.90578042      4.03017089
    C     -7.49529009     14.46646535      1.90623688      4.02578596
    C      6.39533959     12.42880056      1.90543343      4.03232580
    C     -6.29869589     12.38882430      1.90742248      4.03032798
    C     -1.17790958     25.46126073      1.90833406      4.03098673
    C      7.59374478     14.50581482      1.90743025      4.02621914
    C     21.47568892     13.76731054      1.90729899      4.03129120
    C     16.31024955      0.72600592      1.90587509      4.02288534
    C      7.59775315     11.73519915      1.90524385      4.03307847
    C     15.81395704      5.07617376      1.90694266      3.82216347
    C     17.95038427     11.16728019      1.90943203      3.82447080
    C     11.60721034      9.97924831      1.90591933      3.81769758
    C     -0.67160239     21.10671760      1.90587385      3.82137605
    C     -2.77633652     15.00145620      1.90390379      3.81774481
    C      3.56435757     16.23992878      1.90665586      3.82605495
    C     -3.48016814     16.21396133      1.90388066      3.82084395
    C      0.72994855     21.11003180      1.90662349      3.82593235
    C      2.86881402     15.02295336      1.90565329      3.81984598
    C     18.64734048      9.95164682      1.90942178      3.82271740
    C     14.41227119      5.07932354      1.90625194      3.81637506
    C     12.31332660     11.19003524      1.90694614      3.82415856
    C     16.53867052      6.25500259      1.90756395      4.13568161
    C     16.56759982     11.20764299      1.90902319      4.12732903
    C     12.26356203      8.76076935      1.90570578      4.13248057
    C     -1.39091157     19.92462435      1.90506081      4.13107529
    C     -1.39274290     14.97088271      1.90397794      4.13075772
    C      2.89791483     17.45208636      1.90678979      4.13180057
    C     -2.82159254     17.43091304      1.90397736      4.13276183
    C      1.45508406     19.93214248      1.90669928      4.12828079
    C      1.48552733     14.98181650      1.90481969      4.13250613
    C     17.98274628      8.73813751      1.90895162      4.12882028
    C     13.69374884      6.26222836      1.90599870      4.13140197
    C     13.69677707     11.21841009      1.90773682      4.13525757
    C     15.83201703      7.48229613      1.90750433      3.99825907
    C     15.85841932      9.98240048      1.90838460      3.99297930
    C     13.67969695      8.75555933      1.90661677      3.99549989
    C     -0.67784479     18.70131832      1.90504049      3.99289460
    C     -0.68883366     16.20038228      1.90430863      3.99895310
    C      1.48184492     17.44294654      1.90588967      3.99318895
    C     -1.40509306     17.43306595      1.90433608      4.00065635
    C      0.74754508     18.70564597      1.90589329      3.99317435
    C      0.77345065     16.20577616      1.90496081      3.99407762
    C     16.56695924      8.74564534      1.90832642      3.99275174
    C     14.40620940      7.48649786      1.90665510      3.99681792
    C     14.39723346      9.98763561      1.90758354      3.99462623
    H      7.57118474     10.63042351      1.90432221      0.95159340
    H     17.27962820      1.25620897      1.90467563      0.95010433
    H     20.53262225     14.34320784      1.90732962      0.95036328
    H      7.62009236     15.61055038      1.90832182      0.95076658
    H     -2.14724078     24.93067675      1.90956032      0.95110377
    H     -5.35587330     11.81241189      1.90742206      0.95163827
    H      5.45217389     11.85292110      1.90465477      0.95135749
    H     -7.52102880     15.57112377      1.90517472      0.95085268
    H      2.19088291     24.93636112      1.90469619      0.95075561
    H      9.73947774     14.38788514      1.90798503      0.95025828
    H     22.69802032     10.58425836      1.90955111      0.95067552
    H     12.94156426      1.25034334      1.90956973      0.95174877
    H     11.70432725      7.80836715      1.90488203      0.93171076
    H     17.64313496      6.24934974      1.90820601      0.93043598
    H     16.02070919     12.16720676      1.90900352      0.93209971
    H      3.44771214     18.41004877      1.90757054      0.93158381
    H     -2.49530727     19.92444933      1.90441737      0.93196818
    H     -0.84024496     14.01460927      1.90403797      0.93115723
    H      0.94017472     14.02143392      1.90402860      0.93177661
    H     -3.37878789     18.38441163      1.90403070      0.93030980
    H      2.55961201     19.93719298      1.90736180      0.93183332
    H     14.25140739     12.17360124      1.90853629      0.93118005
    H     18.53397871      7.78116357      1.90888563      0.93218653
    H     12.58926792      6.26230835      1.90538014      0.93164818
    B     -4.05179641     15.50877947      5.32929532      2.73225985
    B      5.94681266     15.47028122      5.33253921      2.72800805
    B      0.97233141     24.15518232      5.33199280      2.72803789
    B     21.03799914     12.57240258      5.33399499      2.72758147
    B     11.02979353     12.53725695      5.33211824      2.72787035
    B     16.05796967      3.89680536      5.33189001      2.72952924
    O     17.21703776      4.66975537      5.33264380      6.23120399
    O     19.78915596     13.19056252      5.33438770      6.23025643
    O     11.12096578     11.14636207      5.33139444      6.23513665
    O     -0.19076447     23.38751921      5.33157987      6.23032824
    O     -2.80643905     14.88357506      5.32916962      6.23520834
    O      5.86654094     16.86112268      5.33334369      6.22970555
    O     -3.96173282     16.89907615      5.32915127      6.23263275
    O      2.13208110     23.38306532      5.33261685      6.23018073
    O      4.69657026     14.85421992      5.33162247      6.23233780
    O     20.95469769     11.18137233      5.33445796      6.22974582
    O     14.89385234      4.66335754      5.33149970      6.23675885
    O     12.27448213     13.16303900      5.33307859      6.23005539
    C     22.33484301     13.32099298      5.33268404      4.08011977
    C      9.73037509     13.28104526      5.33214011      4.08926596
    C     16.05935656      2.39957702      5.33166648      4.09093038
    C     -5.34949164     14.76214121      5.33011997      4.09311985
    C      7.24090779     14.71719620      5.33253008      4.08675666
    C      0.97083985     25.65252502      5.33168501      4.08316497
    C     14.86118935      1.65500892      5.33291302      4.03017089
    C     23.57663210     12.65303498      5.33245656      4.02578596
    C      9.68600242     14.69069977      5.33326001      4.03232580
    C      2.16886915     26.39700892      5.33025017      4.03277017
    C     -6.59162636     15.43055847      5.33022634      4.03030678
    C      7.28490960     13.30744583      5.33145670      4.02313499
    C     -5.39434691     13.35218980      5.33139446      4.03129120
    C     -0.22890754     26.39349441      5.33281836      4.02288534
    C      8.48358886     15.38430118      5.33344960      4.03307847
    C     22.38003790     14.73067603      5.33127097      4.03032798
    C     17.25925159      1.65823960      5.33035939      4.03098673
    C      8.48759723     12.61368551      5.33126319      4.02621914
    C     16.75294440      6.01278273      5.33281960      3.82137605
    C     18.85767853     12.11804413      5.33478965      3.81774481
    C     12.51698444     10.87957155      5.33203758      3.82605495
    C      0.26738497     22.04332657      5.33175079      3.82216347
    C     -1.86904226     15.95222014      5.32926142      3.82447080
    C      4.47413167     17.14025202      5.33277411      3.81769758
    C     -2.56599847     17.16785351      5.32927166      3.82271740
    C      1.66907082     22.04017679      5.33244151      3.81637506
    C      3.76801541     15.92946509      5.33174731      3.82415856
    C     19.56151015     10.90553900      5.33481279      3.82084395
    C     15.35139346      6.00946853      5.33206996      3.82593235
    C     13.21252799     12.09654697      5.33304015      3.81984598
    C     17.47225358      7.19487598      5.33363263      4.13107529
    C     17.47408491     12.14861762      5.33471550      4.13075772
    C     13.18342718      9.66741397      5.33190366      4.13180057
    C     -0.45732851     20.86449774      5.33112950      4.13568161
    C     -0.48625781     15.91185734      5.32967026      4.12732903
    C      3.81777998     18.35873098      5.33298767      4.13248057
    C     -1.90140427     18.38136282      5.32974183      4.12882028
    C      2.38759317     20.85727197      5.33269475      4.13140197
    C      2.38456494     15.90109024      5.33095663      4.13525757
    C     18.90293455      9.68858729      5.33471608      4.13276183
    C     14.62625795      7.18735785      5.33199416      4.12828079
    C     14.59581468     12.13768383      5.33387376      4.13250613
    C     16.75918680      8.41818201      5.33365295      3.99289460
    C     16.77017567     10.91911805      5.33438482      3.99895310
    C     14.59949709      9.67655379      5.33280378      3.99318895
    C      0.24932498     19.63720420      5.33118911      3.99825907
    C      0.22292269     17.13709985      5.33030885      3.99297930
    C      2.40164506     18.36394100      5.33207668      3.99549989
    C     -0.48561723     18.37385499      5.33036703      3.99275174
    C      1.67513261     19.63300247      5.33203834      3.99681792
    C      1.68410855     17.13186472      5.33110991      3.99462623
    C     17.48643507      9.68643438      5.33435737      4.00065635
    C     15.33379693      8.41385436      5.33280015      3.99317435
    C     15.30789136     10.91372417      5.33373264      3.99407762
    H      8.46124965     11.50894995      5.33037163      0.95076658
    H     18.22858279      2.18882358      5.32913313      0.95110377
    H     21.43721531     15.30708844      5.33127138      0.95163827
    H      8.51015727     16.48907682      5.33437124      0.95159340
    H     -1.19828619     25.86329136      5.33401781      0.95010433
    H     -4.45128024     12.77629249      5.33136382      0.95036328
    H      6.34186427     12.73161519      5.33070841      0.95025828
    H     -6.61667831     16.53524197      5.32914234      0.95067552
    H      3.13977775     25.86915700      5.32912371      0.95174877
    H     10.62916812     15.26657923      5.33403868      0.95135749
    H     23.60237081     11.54837656      5.33351873      0.95085268
    H     13.89045910      2.18313921      5.33399726      0.95075561
    H     12.63362987      8.70945156      5.33112291      0.93158381
    H     18.57664928      7.19505100      5.33427607      0.93196818
    H     16.92158697     13.10489106      5.33465547      0.93115723
    H      4.37701477     19.31113318      5.33381142      0.93171076
    H     -1.56179295     20.87015059      5.33048744      0.93043598
    H      0.06063282     14.95229357      5.32968992      0.93209971
    H      1.82993462     14.94589909      5.33015715      0.93118005
    H     -2.45263670     19.33833676      5.32980782      0.93218653
    H      3.49207409     20.85719198      5.33331330      0.93164818
    H     15.14116729     13.09806641      5.33466484      0.93177661
    H     19.46012990      8.73508870      5.33466275      0.93030980
    H     13.52173000      7.18230735      5.33133165      0.93183332
