9

  C   0.04548913916044     -0.00299027492515      1.52266678592459
  C   -0.07601762799968      0.25375057587391      0.05812551875722
  N   -1.35175070805215     -0.14527860763237     -0.49039875420599
  O   0.79472683637109      0.74720047659024     -0.59907990781975
  H   -1.75223610939597      0.67270959086769     -0.93574503459312
  H   -1.16429206855293     -0.77905213131240     -1.25888216774949
  H   -0.71523799881351      0.56821438090423      2.04876094457605
  H   -0.16715148550959     -1.04897329345055      1.73144912327409
  H   1.03105502279229      0.27578428308441      1.87624849183640
