          39
 
   C          1.25300982      0.59636972      0.66966563
   C          2.13898389     -0.71323276      0.88571093
   C          2.69438651     -1.03677485     -0.53151106
   C          2.04754881      0.05720129     -1.40905567
   C          0.49813356     -0.14716773     -1.54582529
   C          0.04573967      0.10790711     -0.09723917
   C          2.09336765      1.25999940     -0.47047228
   C          1.09393861      1.52030176      1.87920484
   C         -0.01988068      0.93487355     -2.55637216
   C          0.11230616     -1.55159459     -2.05372518
   C         -2.98562365     -0.15287769      2.17527019
   C         -1.62685317     -0.30162004      1.78475475
   C         -1.25776932     -0.10419762      0.38236111
   C         -2.35648900     -0.05386392     -0.55417539
   C         -3.65993774      0.02445993     -0.14286764
   C         -3.98030308      0.01144083      1.24265128
   H          2.92868412     -0.44854628      1.59837339
   H          1.58297574     -1.56607970      1.29690325
   H          2.45531852     -2.05201776     -0.85762932
   H          3.78340742     -0.92750135     -0.55363868
   H          2.51742605      0.17656652     -2.38853065
   H          3.09616117      1.50098896     -0.10099854
   H          1.63051630      2.17004566     -0.86185241
   H          0.87464398      1.01575910      2.82298275
   H          2.03742438      2.06047379      2.01876160
   H          0.30289677      2.25835184      1.69999108
   H         -0.12805130      1.92315974     -2.10034544
   H          0.70152039      1.01083918     -3.37752815
   H         -0.98088950      0.65206744     -2.99528629
   H          0.38223315     -2.33232161     -1.33496974
   H         -0.95966232     -1.63186254     -2.25505157
   H          0.64989200     -1.74491051     -2.99014888
   H         -3.23857918     -0.22934769      3.23063483
   N         -0.75418954     -0.73429328      2.70904590
   H         -2.14354128      0.02454398     -1.60744786
   CL        -4.95459703      0.17846374     -1.30818067
   H         -5.01650148      0.10504582      1.55722251
   H          0.20360851     -0.94851137      2.48347874
   H         -1.06125492     -0.91213806      3.65583923
