10
 
B     0.0000000    0.0000000   -2.3759884 
H     0.5905364    1.0228391   -2.5936411 
H     0.5905364   -1.0228391   -2.5936411 
H    -1.1810728    0.0000000   -2.5936411 
P    -0.0000000    0.0000000    1.7684168 
H     0.6165007    1.0678105    2.4225352 
H     0.6165007   -1.0678105    2.4225352 
H    -1.2330014    0.0000000    2.4225352 
H     0.0000000    0.0000000   -1.0070281 
H    -0.0000000    0.0000000   -0.1475438 
