          10
 
   TE        -0.10416368     -1.34162038     -1.42759098
   TE         0.10416368      1.34162038     -1.42759098
   C         -1.37146053      1.76504571      0.15805956
   C          1.37146053     -1.76504571      0.15805956
   H          2.34228535     -1.34620776     -0.10397606
   H          1.04175917     -1.34975272      1.10962314
   H          1.47226714     -2.84767091      0.26388433
   H         -2.34228535      1.34620776     -0.10397606
   H         -1.04175917      1.34975272      1.10962314
   H         -1.47226714      2.84767091      0.26388433
