           7
 
   C         -1.00397318     -0.23174512      0.00000000
   N         -0.36247433      0.94035927      0.00000000
   N          0.88778637      0.52425614      0.00000000
   N          1.05292158     -0.79112616      0.00000000
   N         -0.17159421     -1.28817370      0.00000000
   H         -2.07447886     -0.31082202      0.00000000
   H          1.67181263      1.15725159      0.00000000
