          17
 
   C          2.40608247     -0.14162547      0.10814194
   C          0.96322147     -0.33351647     -0.34123206
   C          0.03678447      0.73127553      0.23387994
   C         -1.40381453      0.63605153     -0.26115906
   C         -2.10514453     -0.65011847      0.16053494
   H          3.06171147     -0.90766447     -0.30292006
   H         -1.41327053      0.71871853     -1.35063106
   H         -1.96681953      1.49078953      0.11754794
   H          2.48072447     -0.18560947      1.19468294
   H          2.78478147      0.82969653     -0.20961406
   H          0.43942847      1.71568953     -0.01793006
   H          0.04788947      0.66405953      1.32597994
   H          0.90854547     -0.30118047     -1.43234606
   H          0.62069947     -1.32514347     -0.04290206
   H         -3.15013253     -0.64777147     -0.14552506
   H         -1.63560853     -1.52720747     -0.28093806
   H         -2.07507853     -0.76644347      1.24442994
