          24
 
   C          3.07197394      0.26648624     -1.06601455
   O          4.01648873     -0.48022517     -1.11455027
   C          2.14982287      0.46946831      0.13507818
   O          2.60472219     -0.27622411      1.24832425
   C          0.70726949      0.05506504     -0.27077204
   H          0.47461563      0.49324265     -1.25190560
   C         -0.34361016      0.58161722      0.73202778
   O         -0.00513329      0.23196067      2.08978153
   C         -1.77788202      0.09754203      0.42127915
   H         -2.46684209      0.62555743      1.09161391
   C         -2.22103848      0.34670614     -1.02424705
   O         -3.60404594      0.05570344     -1.20379353
   H          2.76538148      0.89161832     -1.94448990
   H          2.13377522      1.55854667      0.33751214
   H          1.92521897     -0.13316094      1.93588898
   O          0.63591044     -1.37445043     -0.42432976
   H         -0.32446369      1.67933696      0.67863850
   H         -0.48283487     -0.59491184      2.27730113
   O         -1.92097802     -1.29844419      0.76159046
   H         -1.59810792     -0.26068900     -1.70404238
   H         -2.08676327      1.40562790     -1.28271721
   H         -3.74226774     -0.83611449     -0.84951858
   H          1.30868462     -1.74959112      0.17079609
   H         -1.21989606     -1.75466775      0.25654876
