           7
 
   C         -0.78287141     -0.09503488      0.00083080
   O          1.72258178     -0.21169693      0.00055680
   H          0.43809243     -0.22102315      0.00322280
   H         -1.09691164     -0.33625308      1.01049616
   H         -1.00205133      0.93023159     -0.27765832
   H         -1.12409548     -0.81311640     -0.73728104
   H          1.84525565      0.74689284     -0.00016720
