14
 
O     2.5830401    1.2432298    0.0000000 
N     0.3193201    1.0947262    0.0000000 
N    -1.9748125    1.0215543    0.0000000 
N     1.6117643   -0.8132943    0.0000000 
C    -0.8308934    0.3883519    0.0000000 
C    -0.7385406   -1.0255390    0.0000000 
C     1.5940018    0.5563724    0.0000000 
C     0.4960813   -1.5716393    0.0000000 
H    -1.6258970   -1.6397707    0.0000000 
H     0.6510715   -2.6411928    0.0000000 
H    -2.8435111    0.5086089    0.0000000 
H    -2.0429362    2.0290320    0.0000000 
H     2.5203628   -1.2595097    0.0000000 
H     0.2809490    2.1090704    0.0000000 
