18
 
C          0.04904       -0.08448        0.02142
C          0.04904       -0.08448        1.53549
N          1.44683       -0.08448        2.04584
H          1.96441        0.73061        1.70803
H          1.47636       -0.07996        3.06730
H          1.98283       -0.92659        1.67426
H         -0.45396        0.79158        1.93898
H         -0.43113       -0.97481        1.93577
H          0.55324        0.79805       -0.36905
H          0.54942       -0.96888       -0.36720
H         -0.97758       -0.08002       -0.33796
O          2.80462       -2.05209        0.86051
C          3.45416       -1.35959        0.02862
C          4.22417       -2.21988       -1.00695
F          5.03891       -3.09750       -0.40189
O          3.53466       -0.12834       -0.07340
F          4.97310       -1.49334       -1.83814
F          3.36708       -2.92902       -1.76105
