12
 
O    -2.2591930    1.0052587   -0.7644877 
S    -1.4709156   -0.0548615    0.0454608 
O    -1.1596184    0.4925273    1.3254430 
O    -1.8566941   -1.3918553   -0.2229037 
O     0.0482886    0.1451746   -0.8541148 
S     1.4490229    0.0260490   -0.1942554 
O     1.5860249    1.1487525    0.8463390 
O     1.3663991   -1.2462796    0.7018672 
O     2.4767587    0.0656696   -1.1568621 
H    -2.7571666    0.6428531   -1.5224819 
H     0.8651287    1.2285636    1.5076123 
H     1.7119649   -2.0618520    0.2883831 
