8

C     0.0000000    0.0000000   -0.7636815 
C     0.0000000    0.0000000    0.7636815 
H     1.0087494    0.0000000   -1.1676039 
H    -0.5043747   -0.8736026   -1.1676039 
H    -0.5043747    0.8736026   -1.1676039 
H     1.0087494    0.0000000    1.1676039 
H    -0.5043747    0.8736026    1.1676039 
H    -0.5043747   -0.8736026    1.1676039 
