17

C        0.844542   -1.285632    0.000000 
C       -0.657980   -1.220787    0.000000 
C        1.257174    0.179579    0.000000 
C       -1.125312    0.025746    0.000000 
C        0.000000    1.032353    0.000000 
C        2.502139    0.633307    0.000000 
H        1.236418   -1.813974    0.875081 
H        1.236418   -1.813974   -0.875081 
H       -1.280383   -2.105749    0.000000 
H        3.350625   -0.038941    0.000000 
H        2.720423    1.693582    0.000000 
H       -0.047915    1.689792   -0.874475 
H       -0.047915    1.689792    0.874475 
C       -2.551924    0.459215    0.000000 
H       -2.774162    1.074581   -0.876537 
H       -3.231179   -0.392375    0.000000 
H       -2.774162    1.074581    0.876537 
