16
4NH3TS (Full point group Cs)
H 1.424320 0.315746 0.000000
H 0.446026 -1.447322 0.000000
H -1.508748 0.121957 0.000000
H 0.000000 1.458660 0.000000
H 1.507411 1.878060 0.821411
H 1.964125 -1.661433 -0.812887
H -1.557872 -1.938180 0.802236
H -2.045777 1.558489 -0.812895
N 1.134596 1.413387 0.000000
N -1.163704 -1.448618 0.000000
N 1.542580 -1.223744 0.000000
N -1.527382 1.241416 0.000000
H -2.045777 1.558489 0.812895
H -1.557872 -1.938180 -0.802236
H 1.964125 -1.661433 0.812887
H 1.507411 1.878060 -0.821411
