11
 
C         -0.09214       -0.01986        0.03339
C         -0.09214       -0.01986        1.54765
N          1.30366       -0.01986        2.06056
H          1.82454        0.79276        1.71932
H          1.83375       -0.87593        1.69976
H          1.33055       -0.00550        3.08339
H         -0.57287       -0.91067        1.94646
H         -0.59819        0.85520        1.94973
H         -1.11869       -0.01850       -0.32652
H          0.40978        0.86412       -0.35670
H          0.41226       -0.90191       -0.35494
