          12
 
   C         -1.88027298     -0.32890703     -0.00123733
   C         -0.56283020      0.42581038     -0.01210493
   N          0.56180563     -0.34443524     -0.03231723
   C          1.89162436      0.24177097      0.00269618
   O         -0.51591934      1.64564473     -0.01202985
   H         -2.47089712     -0.01200467     -0.86172303
   H         -2.43450236     -0.05182873      0.89675177
   H         -1.76651028     -1.41389030     -0.02853984
   H          0.47046158     -1.34374123      0.03376859
   H          1.94037281      1.07983027     -0.69174627
   H          2.62057028     -0.51223902     -0.29279096
   H          2.14609763      0.61398987      0.99927290
