          33
 
   N          1.72213791     -2.95749594      0.02012915
   C          0.37719691     -3.01860994      0.31722115
   C         -0.15222009     -1.74884494      0.36497615
   C          0.93283391     -0.85143594      0.07893315
   C          1.03280591      0.55045806     -0.00840685
   C          2.26240091      1.10947906     -0.30942185
   C          3.40522691      0.30718306     -0.52447585
   C          3.33477791     -1.07401694     -0.43535685
   C          2.09131791     -1.64091994     -0.12984485
   H          2.33483291     -3.74825594     -0.05818585
   H         -0.10597109     -3.96828094      0.48165015
   H          0.17998291      1.19949906      0.14138615
   H          4.33772091      0.79203206     -0.78015585
   H          4.21090091     -1.68614394     -0.60643985
   O          2.36351991      2.48265206     -0.44515685
   C          2.97297491      3.09946506      0.68636315
   H          3.98571591      2.72295006      0.84575015
   H          2.38186491      2.92295206      1.58818615
   H          3.01197291      4.16537006      0.47796015
   C         -1.57937909     -1.37314294      0.61141315
   C         -2.27307209     -0.90637494     -0.67928885
   N         -3.65435309     -0.50679994     -0.48650985
   C         -4.11320609      0.73230006     -0.12601185
   C         -3.10569209      1.86462506     -0.16156285
   H         -1.64001409     -0.57374994      1.35458015
   H         -2.12697709     -2.22549094      1.01984015
   H         -2.24823109     -1.71689294     -1.40911685
   H         -1.71885409     -0.07884294     -1.11779085
   H         -4.34767509     -1.23187794     -0.38712285
   O         -5.28275209      0.91252406      0.18086415
   H         -2.69133509      1.99067606     -1.16164785
   H         -2.27924409      1.68099906      0.52481615
   H         -3.61920809      2.77401206      0.13242715
