17

C       -0.522576   -1.018641    0.000000 
C        0.742069   -1.917288    0.000000 
C        0.000000    0.412015    0.000000 
C        1.882741   -0.935571    0.000000 
C        1.455408    0.330166    0.000000 
C       -0.720211    1.537274    0.000000 
C       -2.213092    1.618926    0.000000 
H       -0.186193    2.482235    0.000000 
H       -1.145145   -1.208038    0.874807 
H       -1.145145   -1.208038   -0.874807 
H        0.779540   -2.573430   -0.873419 
H        0.779540   -2.573430    0.873419 
H        2.918886   -1.243183    0.000000 
H        2.090355    1.205248    0.000000 
H       -2.677541    0.633978    0.000000 
H       -2.580163    2.161686   -0.875938 
H       -2.580163    2.161686    0.875938 
