          10
 
   C          0.00000000      0.66796718     -0.92748470
   C          0.00000000      0.78639838      0.58531628
   C          0.00000000     -0.78639838      0.58531628
   C          0.00000000     -0.66796718     -0.92748470
   H          0.00000000      1.41343344     -1.71367869
   H          0.88815574      1.24476851      1.02792356
   H         -0.88815574      1.24476851      1.02792356
   H         -0.88815574     -1.24476851      1.02792356
   H          0.88815574     -1.24476851      1.02792356
   H          0.00000000     -1.41343344     -1.71367869
