          34
 
   C          0.00000000      0.00000000      2.31007135
   C         -1.24716890      0.72005330      1.79458107
   H         -2.14734140      0.22204932      2.16658495
   C         -1.24721528      0.72008008      0.26638444
   H         -1.26597105      1.74862754      2.16658495
   C          0.00000000     -1.44010660      1.79458107
   H          0.00000000      0.00000000      3.40253776
   C          1.24716890      0.72005330      1.79458107
   C         -1.24721528     -0.72008008     -0.26638444
   C          0.00000000      1.44016016     -0.26638444
   H         -2.14021938      1.23565624     -0.10394922
   H         -2.14021938     -1.23565624      0.10394922
   C          0.00000000      0.00000000     -2.31007135
   C         -1.24716890     -0.72005330     -1.79458107
   C          0.00000000      1.44010660     -1.79458107
   H         -0.88137035      1.97067686     -2.16658495
   H          0.00000000      2.47131248      0.10394922
   H         -0.88137035     -1.97067686      2.16658495
   H          0.88137035     -1.97067686      2.16658495
   C          0.00000000     -1.44016016      0.26638444
   H          2.14734140      0.22204932      2.16658495
   H          1.26597105      1.74862754      2.16658495
   C          1.24721528      0.72008008      0.26638444
   H         -1.26597105     -1.74862754     -2.16658495
   H          2.14734140     -0.22204932     -2.16658495
   H          0.00000000     -2.47131248     -0.10394922
   H          2.14021938      1.23565624     -0.10394922
   C          1.24721528     -0.72008008     -0.26638444
   H         -2.14734140     -0.22204932     -2.16658495
   C          1.24716890     -0.72005330     -1.79458107
   H          0.88137035      1.97067686     -2.16658495
   H          0.00000000      0.00000000     -3.40253776
   H          2.14021938     -1.23565624      0.10394922
   H          1.26597105     -1.74862754     -2.16658495
