           8
 
   AL         0.00000000      0.00000000     -1.30656400
   AL         0.00000000      0.00000000      1.30656400
   H          0.00000000      1.14549300      0.00000000
   H          0.00000000     -1.14549300      0.00000000
   H          1.41072100      0.00000000     -1.99677300
   H         -1.41072100      0.00000000     -1.99677300
   H         -1.41072100      0.00000000      1.99677300
   H          1.41072100      0.00000000      1.99677300
