          23
 
   C          2.41584590     -0.81138491     -0.30930543
   C          1.08745965     -0.96733794      0.42170165
   C          0.00000000      0.00000000     -0.05295303
   C          0.29400940      1.42543665      0.42170165
   C         -0.50524300      2.49787638     -0.30930543
   C         -1.38146905     -0.45809871      0.42170165
   C         -1.91060290     -1.68649147     -0.30930543
   H          2.83224463      0.18733634     -0.18970265
   H          3.15466659     -1.52029277      0.06164865
   H          2.28737979     -0.99184098     -1.37667452
   H          1.23143009     -0.82047627      1.49645048
   H          0.74205737     -1.99460776      0.29701708
   H          0.00000000      0.00000000     -1.15045273
   H          1.35635231      1.63994441      0.29701708
   H          0.09483825      1.47668788      1.49645048
   H         -0.28473041      2.47684950     -1.37667452
   H         -0.26072113      3.49216779      0.06164865
   H         -1.57836035      2.35912762     -0.18970265
   H         -1.32626834     -0.65621161      1.49645048
   H         -2.09840968      0.35466335      0.29701708
   H         -1.25388428     -2.54646397     -0.18970265
   H         -2.89394546     -1.97187502      0.06164865
   H         -2.00264938     -1.48500852     -1.37667452
