14

C        0.000000    0.185069    0.000000 
C       -1.375639   -0.425052    0.000000 
C       -0.038773   -1.111016    0.000000 
C        0.711211    1.425145    0.000000 
C        0.615790   -2.428679    0.000000 
C        0.107594    2.616183    0.000000 
H       -1.973131   -0.406438    0.911869 
H       -1.973131   -0.406438   -0.911869 
H        1.794625    1.366737    0.000000 
H        0.313451   -3.006442   -0.877524 
H        1.701923   -2.338927    0.000000 
H       -0.971736    2.691254    0.000000 
H        0.673454    3.536786    0.000000 
H        0.313451   -3.006442    0.877524 
