          33
 
   N         -0.30967136      2.29547464     -0.58406488
   C          0.72784864      1.43978064     -0.89038188
   C          0.32747264      0.13286564     -0.70864088
   C         -1.03581936      0.19223464     -0.26053388
   C         -1.97950136     -0.79315436      0.08629812
   C         -3.23640636     -0.38651836      0.49848512
   C         -3.58357136      0.98116764      0.57211012
   C         -2.67431236      1.96884564      0.22818812
   C         -1.40265936      1.55896164     -0.19081888
   H         -0.25896236      3.29727864     -0.61168288
   H          1.67715164      1.83166064     -1.21725488
   H         -1.74581236     -1.84909736      0.05076512
   H         -4.57237036      1.24538064      0.92213612
   H         -2.94122136      3.01580964      0.29262512
   O         -4.16155836     -1.33890036      0.88781512
   C         -5.14662336     -1.58215836     -0.11326488
   H         -4.68372436     -1.96044936     -1.02786388
   H         -5.70622236     -0.67389236     -0.34763688
   H         -5.82389536     -2.33050836      0.28976812
   C          1.11988664     -1.11768836     -0.96470788
   C          2.62328664     -0.88316036     -1.05575088
   N          3.12667164     -0.35882636      0.20310712
   C          4.46092664     -0.30842836      0.46959512
   C          4.83784464      0.31300164      1.79996712
   H          0.78667964     -1.58337236     -1.89602688
   H          0.92279864     -1.84021436     -0.16805088
   H          2.85581064     -0.19933536     -1.87732288
   H          3.14320764     -1.81595236     -1.26640188
   H          2.48130364      0.11351264      0.81156812
   O          5.30065364     -0.74752436     -0.30438488
   H          5.38333464     -0.42521736      2.38453212
   H          3.97907564      0.65844964      2.37283812
   H          5.50837864      1.14997464      1.61499112
