27
 
  C   -0.37639339935608      0.44405457399388      2.08885745948067
  C   -1.51679919636774      0.33872242216031      1.18597996507834
  C   -1.44062442803483      0.66156902527754     -0.18126562905374
  C   0.98704942936798      0.33318502408875     -0.70958084831173
  C   1.53364569230428     -0.07064240815109      0.52256645119692
  C   0.92809270769384      0.26776492361766      1.80525082626003
  C   2.70339666129800     -0.84455197426521      0.51889756313449
  C   3.29041217204599     -1.25731042443318     -0.66562073594600
  C   2.71596414756286     -0.89678071389932     -1.88032391168264
  C   1.57532572714016     -0.10410955309680     -1.89292427907092
  C   -2.54976180992051      0.45601745724784     -0.99642855737168
  C   -3.74107970164614     -0.03242851156019     -0.47774737402843
  C   -3.83607579343715     -0.31408692927037      0.88116578581104
  C   -2.73605806260155     -0.12288541974826      1.70021805524839
  C   -0.18405325708782      1.27945217955130     -0.73023477962753
  H   -0.63249337834688      0.57976004430865      3.13386608872460
  H   1.61331504306225      0.27015748454730      2.64602822801551
  H   3.14026817530376     -1.13719684523164      1.46594308801611
  H   4.18969256130906     -1.85791871014184     -0.64377740899276
  H   3.16526634530070     -1.21671646422210     -2.81129228692968
  H   1.14376004886206      0.20517293306201     -2.83705929069618
  H   -2.48304517408698      0.70762035578468     -2.04766772402774
  H   -4.59498875289818     -0.17641937554384     -1.12616516143406
  H   -4.76344366593727     -0.68236930180680      1.29921407024194
  H   -2.80306762181956     -0.35365280194976      2.75603716503046
  H   0.06758946781712      2.15461847545453     -0.12168080003773
  H   -0.35989393752739      1.62997453422594     -1.74725595902769
