          48
 
   C          1.40153995     -0.69289252      0.14190431
   C          1.00076035     -2.07190004      0.27458312
   C          1.64656421     -3.30345244      0.05214619
   C          0.93798425     -4.48365739      0.26395553
   C         -0.41065605     -4.46343864      0.68614299
   C         -1.08457302     -3.26054082      0.89156894
   C         -0.36190090     -2.08426836      0.67722513
   H          2.68035343     -3.32760795     -0.28314485
   H          1.42780078     -5.44093593      0.09731234
   H         -0.93526938     -5.40332494      0.84513133
   H         -2.12587507     -3.22497516      1.20036564
   N         -0.77464821     -0.76729231      0.76006573
   C          0.29122881      0.08984319      0.43790167
   C          0.17564023      1.54799707      0.55650901
   C          2.72738507     -0.21578484     -0.27334953
   C          3.89369438     -0.83232995      0.22038270
   C          5.15928225     -0.38756679     -0.17033345
   C          5.28628855      0.68358526     -1.06118167
   C          4.13438260      1.30323661     -1.56129555
   C          2.87008988      0.85579340     -1.17660366
   H          3.79965516     -1.65081687      0.93009747
   H          6.04818841     -0.87461803      0.22716966
   H          6.27198400      1.03048874     -1.36527032
   H          4.22188100      2.13250873     -2.26120871
   H          1.97846726      1.33257813     -1.57556344
   C         -0.89641980      2.26085689     -0.01397372
   C         -0.97139358      3.65020348      0.11555701
   C          0.02309927      4.35025123      0.80627231
   C          1.09662727      3.65041424      1.37121537
   C          1.17089628      2.26288961      1.25220021
   H         -1.65790217      1.73123571     -0.57858885
   H         -1.80487599      4.18581419     -0.33501719
   H         -0.03588952      5.43264472      0.90278285
   H          1.87500351      4.18684398      1.91052906
   H          2.00203274      1.71717431      1.69064970
   N         -2.03269781     -0.40418808      1.20671371
   C         -3.05246454     -0.19821342      0.25070777
   C         -4.20521408      0.50441395      0.64110713
   C         -5.25126142      0.68547162     -0.26321807
   C         -5.16572302      0.17129034     -1.56333172
   C         -4.01617371     -0.52721911     -1.94512262
   C         -2.95966279     -0.71657055     -1.04969328
   H         -4.27228540      0.90983375      1.65000056
   H         -6.13668683      1.23566336      0.04971187
   H         -5.98295273      0.31436611     -2.26637622
   H         -3.93369303     -0.93195372     -2.95207100
   H         -2.06875104     -1.25941015     -1.35178452
   H         -1.98385953      0.29755939      1.93721905
