          42
 
   C          0.83652418      0.13171286      1.26751198
   C          1.55711505     -0.39234388      0.00000000
   C          0.83652418      0.13171286     -1.26751198
   C         -0.65916718     -0.14452289     -1.26332005
   C         -1.33162508      0.37734933      0.00000000
   C         -0.65916718     -0.14452289      1.26332005
   C          1.57542243     -1.92420144      0.00000000
   O          2.95105442     -0.02254822      0.00000000
   C          1.61962981      0.09825832     -2.55374228
   C          1.28406784      1.42606940     -1.90904143
   C         -1.16178857     -1.43985666     -1.86137138
   C         -1.40832286     -0.13080222     -2.57398312
   C         -2.81457140      0.65499435      0.00000000
   C         -1.83138994      1.80444058      0.00000000
   C         -1.16178857     -1.43985666      1.86137138
   C         -1.40832286     -0.13080222      2.57398312
   C          1.28406784      1.42606940      1.90904143
   C          1.61962981      0.09825832      2.55374228
   H          0.55696823     -2.31665313      0.00000000
   H          2.09653536     -2.28292807     -0.89391116
   H          2.09653536     -2.28292807      0.89391116
   H          2.99753933      0.94304873      0.00000000
   H          0.50359127      2.02578141      2.36865627
   H          2.10231800      2.00869533      1.48862897
   H          2.64956034     -0.24289372      2.46600501
   H          1.12850557     -0.18310122      3.48396240
   H         -0.43107878     -2.11111525      2.29247007
   H         -2.01481089     -1.91294528      1.37977907
   H         -2.42004861      0.27605965      2.59684003
   H         -0.85080661      0.07964402      3.48350648
   H         -3.38334491      0.46516112      0.90433057
   H         -3.38334491      0.46516112     -0.90433057
   H         -1.72162048      2.37474003     -0.92522229
   H         -1.72162048      2.37474003      0.92522229
   H         -2.01481089     -1.91294528     -1.37977907
   H         -0.43107878     -2.11111525     -2.29247007
   H         -0.85080661      0.07964402     -3.48350648
   H         -2.42004861      0.27605965     -2.59684003
   H          1.12850557     -0.18310122     -3.48396240
   H          2.64956034     -0.24289372     -2.46600501
   H          2.10231800      2.00869533     -1.48862897
   H          0.50359127      2.02578141     -2.36865627
