59
 
H    -0.6376812    1.7299535   -3.1472798 
O    -0.7942370    0.8874592   -2.6916260 
C    -1.4581530    1.1714513   -1.4481677 
H    -2.2954025    1.8619876   -1.6031539 
H    -0.7636030    1.6226414   -0.7267113 
C    -1.9743605   -0.1201492   -0.8581490 
H    -2.3202454    0.0798027    0.1640936 
O    -3.0947016   -0.6199803   -1.6390005 
C    -3.1060698   -2.0379807   -1.6308868 
H    -4.0546004   -2.4175349   -1.2495713 
N    -2.9969211   -2.5175269   -3.0375375 
C    -2.3756916   -1.7703112   -4.0066527 
H    -1.9936242   -0.8113324   -3.6693115 
C    -2.2624384   -2.1946676   -5.2904627 
H    -1.7711552   -1.5825062   -6.0353024 
C    -2.8023233   -3.4727918   -5.6790707 
O    -2.7718742   -3.9758174   -6.8094648 
N    -3.3969323   -4.1767717   -4.6205545 
H    -3.7794379   -5.0937861   -4.8374742 
C    -3.5254798   -3.7770483   -3.3075166 
O    -4.0568381   -4.4727850   -2.4424655 
C    -0.9870701   -1.2888299   -0.8325843 
H    -0.3747592   -1.3201468   -1.7369253 
C    -1.9238854   -2.5042343   -0.7677068 
H    -1.4693481   -3.4221545   -1.1558569 
O    -2.3880046   -2.6890296    0.5704954 
H    -1.6422507   -2.4174698    1.1431576 
O    -0.1592548   -1.1821705    0.3212123 
P     1.4006570   -1.7628687    0.3240865 
O     1.7289384   -2.2549708   -1.0546473 
O     1.5553976   -2.6125870    1.5439297 
O     2.1930342   -0.3731007    0.6512436 
C     2.2766887    0.6282572   -0.3852738 
H     1.3725448    0.6243585   -1.0026758 
H     3.1379252    0.4173938   -1.0282443 
C     2.4646044    1.9829845    0.2554967 
H     2.6756416    2.7090146   -0.5410797 
O     1.2445967    2.3968466    0.9305856 
C     1.5386641    3.0708071    2.1364632 
H     0.9848283    4.0098475    2.1905165 
N     1.0902671    2.2137326    3.2893531 
C     0.5479616    0.9694161    3.0915477 
H     0.4708404    0.6702389    2.0555119 
C     0.1523244    0.1717213    4.1154992 
H    -0.2625133   -0.8082538    3.9208139 
C     0.2926281    0.6203887    5.4752254 
O    -0.0246632    0.0014265    6.4995247 
N     0.8522502    1.9037318    5.5847586 
H     0.9726121    2.2734139    6.5243940 
C     1.2637029    2.7370863    4.5667551 
O     1.7434034    3.8533410    4.7684683 
C     3.5492631    2.0887195    1.3225595 
H     3.5686059    1.1833606    1.9373509 
C     3.0611460    3.2806102    2.1595120 
H     3.4668456    3.2925227    3.1735414 
O     3.3426017    4.5056078    1.4799438 
H     4.1919974    4.3590552    1.0178593 
O     4.8129147    2.2985569    0.6939651 
H     5.5106343    2.0610704    1.3274891 
