          33
 
   N          1.24352585      2.97693367      0.00577458
   C         -0.04785215      2.61239767      0.32529658
   C         -0.15025915      1.24087167      0.37605958
   C          1.15593385      0.73023267      0.06652458
   C          1.68804085     -0.56955933     -0.03115942
   C          3.02522985     -0.71535033     -0.35632742
   C          3.85524485      0.40421467     -0.58687942
   C          3.35730585      1.69412867     -0.48817742
   C          2.00480685      1.84345267     -0.15801942
   H          1.57339585      3.92016067     -0.08477042
   H         -0.80524115      3.36028967      0.49616058
   H          1.08215185     -1.45161633      0.13180058
   H          4.88782785      0.23584167     -0.86166942
   H          3.99464685      2.54970667     -0.67120042
   O          3.55042785     -1.98879233     -0.49960942
   C          4.34421685     -2.37840233      0.61771258
   H          5.19060185     -1.70259333      0.75853858
   H          3.74563485     -2.39251933      1.53185558
   H          4.71226885     -3.37916933      0.40669158
   C         -1.38721415      0.44041767      0.63497058
   C         -1.98323415     -0.10536533     -0.67068442
   N         -3.17758515     -0.90568233     -0.45494942
   C         -4.38626615     -0.32317733     -0.21819042
   C         -5.53281715     -1.27754933      0.04949458
   H         -1.16255215     -0.39678333      1.30149158
   H         -2.14299515      1.05560467      1.12374658
   H         -2.25036215      0.73050767     -1.31528242
   H         -1.25062215     -0.71867533     -1.19510642
   H         -3.09553915     -1.90210533     -0.37097242
   O         -4.54112015      0.89079467     -0.22551042
   H         -6.34231715     -1.04635233     -0.63936742
   H         -5.25697915     -2.32498533     -0.05885142
   H         -5.89830415     -1.10687633      1.06060958
