          51
 
   C         -3.97585015     -1.77408641     -0.62852716
   C         -3.87373974     -0.70893798      0.30607348
   C         -2.69699697      0.03451696      0.40147965
   C         -1.62865141     -0.29608543     -0.43719381
   C         -1.72109592     -1.33431959     -1.35953959
   C         -2.89932357     -2.08164966     -1.46040229
   C         -0.44644110     -1.48021301     -2.15087356
   C          0.59314717     -0.58255242     -1.41828740
   C         -0.27708652      0.41948523     -0.50035175
   C          0.33430372      0.54926486      0.86944318
   C          0.62677692      1.75492462      1.39545232
   C          0.33717171      3.03433390      0.72001774
   C         -0.18384160      2.93013631     -0.67863350
   C         -0.45267230      1.72199692     -1.21833897
   N          1.52377856     -1.36235420     -0.60260136
   C          0.92292125     -1.89572175      0.62585281
   C          0.59802117     -0.74165633      1.60937921
   O          0.50324182      4.11357299      1.29385800
   O         -0.50789001      4.05778408     -1.38559770
   C          0.54404646      5.03746849     -1.55725744
   C          2.87547502     -1.09724655     -0.71711563
   O          3.57482214     -1.65888644      0.31697122
   C          5.02038767     -1.50780678      0.24394518
   C          5.60493730     -2.17309787      1.47808967
   O         -5.00794878     -0.51313049      1.06284763
   C         -4.99892042      0.57300027      1.99660605
   O         -5.12368763     -2.51338897     -0.72477965
   O          3.39438800     -0.47684314     -1.63070829
   H         -5.76327575     -2.15790536     -0.08693493
   H          1.06634007      1.84145132      2.38921455
   H         -0.87060649      1.67242720     -2.22300827
   H          0.13027606      5.78927195     -2.23644538
   H          0.81776663      5.49298611     -0.60061470
   H          1.42558373      4.56846800     -2.02073032
   H         -0.29240991     -1.01708236      2.19411283
   H          1.42485543     -0.59095023      2.31322590
   H          1.59357445     -2.62392176      1.08170126
   H          0.00107355     -2.40855230      0.33334724
   H          1.19164925     -0.00535149     -2.12229341
   H         -0.57935030     -1.12855789     -3.18395551
   H         -0.08782029     -2.51591685     -2.20653280
   H         -2.60346060      0.85673702      1.10537736
   H         -3.00288060     -2.90112259     -2.16836651
   H         -4.21298991      0.42983327      2.75326057
   H         -5.98237133      0.56641639      2.47389018
   H         -4.83632370      1.52988053      1.47912850
   H          5.26229997     -0.43882543      0.20100201
   H          5.37853939     -1.97467995     -0.68209205
   H          5.23292811     -1.69553765      2.39291007
   H          6.69838567     -2.07824672      1.45690025
   H          5.34894377     -3.23932883      1.50709514
