14

   N    -0.002207   -3.779959    0.000000
   H     0.467427   -4.144002    0.818138
   H     0.467427   -4.144002   -0.818138
   H    -0.949694   -4.133182    0.000000
   I     0.001579   -1.085990    0.000000
   C     1.139682    1.767599    0.000000
   N     0.000000    0.972722    0.000000
   O     2.278568    1.383884    0.000000
   O    -2.279448    1.378876    0.000000
   C    -1.141393    1.765109    0.000000
   C    -0.663890    3.190112    0.000000
   C     0.658999    3.191570    0.000000
   H     1.348036    4.021953    0.000000
   H    -1.354763    4.018966    0.000000
