16
B38    
 C 2.04099 0.349745 -0.333083
 H 2.8059 1.095179 -0.095167
 O 2.402974 -0.926174 0.189582
 C 0.677246 0.82577 0.15317
 H 0.70376 0.920819 1.24426
 H 0.502461 1.831176 -0.241782
 C -0.458112 -0.106527 -0.261399
 H -0.256731 -1.116729 0.093898
 H -0.517784 -0.155131 -1.350921
 H 2.48627 -0.832498 1.142546
 H 2.026784 0.223737 -1.415463
 C -1.799156 0.351935 0.278038
 H -1.766197 0.383825 1.372663
 H -2.018459 1.364093 -0.079468
 O -2.789618 -0.569027 -0.172168
 H -3.638663 -0.278396 0.16976
