          30
 
   C         -4.18240308      1.28467799      0.00000000
   C         -5.32577160      0.48306746      0.00000000
   C         -5.20760293     -0.92074302      0.00000000
   C         -3.96240218     -1.55927772      0.00000000
   C         -2.82499157     -0.74899441      0.00000000
   C         -2.92922149      0.66495903      0.00000000
   C         -1.56630294      1.21364351      0.00000000
   C         -0.68373986      0.00288453      0.00000000
   N         -1.48517506     -1.11879776      0.00000000
   O         -1.17242240      2.38505863      0.00000000
   C          0.68373986     -0.00288453      0.00000000
   N          1.48517506      1.11879776      0.00000000
   C          2.82499157      0.74899441      0.00000000
   C          2.92922149     -0.66495903      0.00000000
   C          1.56630294     -1.21364351      0.00000000
   C          3.96240218      1.55927772      0.00000000
   C          5.20760293      0.92074302      0.00000000
   C          5.32577160     -0.48306746      0.00000000
   C          4.18240308     -1.28467799      0.00000000
   O          1.17242240     -2.38505863      0.00000000
   H         -4.24809417      2.37066234      0.00000000
   H         -6.31307607      0.93854762      0.00000000
   H         -6.10977218     -1.52954733      0.00000000
   H         -3.88646317     -2.64439463      0.00000000
   H         -1.10297692     -2.05678119      0.00000000
   H          1.10297692      2.05678119      0.00000000
   H          3.88646317      2.64439463      0.00000000
   H          6.10977218      1.52954733      0.00000000
   H          6.31307607     -0.93854762      0.00000000
   H          4.24809417     -2.37066234      0.00000000
