          16
 
   N          1.14302179     -1.17526119      0.03206120
   C         -0.19709091     -1.12429939      0.07919481
   C         -0.92111147      0.07225380      0.05868740
   C         -0.20208342      1.26048069     -0.02277920
   N          1.10744368      1.23047359     -0.06608360
   C          1.71921613      0.01385839     -0.02981800
   N         -2.24127607     -0.28361343      0.11713351
   C         -2.25582017     -1.64934823      0.16920801
   N         -1.06019578     -2.19428217      0.14792581
   O         -0.84759656      2.44164018     -0.06023380
   N          3.09233833      0.05968150     -0.01165530
   H         -3.18200404     -2.19606737      0.22265712
   H          3.50041316      0.89587656     -0.38822283
   H          3.54205997     -0.80306947     -0.26179772
   H         -3.03546033      0.33125152      0.12247751
   H         -0.16185431      3.12042503     -0.10875491
