           8
 
   B          0.00000000      0.00000000     -1.39941200
   P          0.00000000      0.00000000      0.55927800
   H          0.00000000      1.24719100      1.22236000
   H          1.08009900     -0.62359600      1.22236000
   H         -1.08009900     -0.62359600      1.22236000
   H          0.00000000     -1.17309700     -1.68639600
   H          1.01593200      0.58654900     -1.68639600
   H         -1.01593200      0.58654900     -1.68639600
