16
 
 C                 -0.13467400   -1.13633600    0.00000000
 S                  0.62105100    0.43966300    0.00000000
 C                 -0.13467400    1.35305000    1.35743200
 C                 -0.13467400    1.35305000   -1.35743200
 H                 -1.21597900    1.28131000    1.26341800
 H                  0.20397800    2.38699100    1.32063900
 H                  0.19944500    0.87496200    2.27453400
 H                 -1.21597900    1.28131000   -1.26341800
 H                  0.19944500    0.87496200   -2.27453400
 H                  0.20397800    2.38699100   -1.32063900
 B                  0.85433300   -2.26723000    0.00000000
 H                  2.03668600   -2.06506100    0.00000000
 H                  0.44680000   -3.38911000    0.00000000
 B                 -1.63093000   -1.23405200    0.00000000
 H                 -2.34792100   -0.26684300    0.00000000
 H                 -2.14015500   -2.31229300    0.00000000
