          10
 
   N          0.00000000      0.00000000      1.14271621
   C         -1.12415740      0.00000000      0.35290193
   C          1.12415740      0.00000000      0.35290193
   C         -0.71189725      0.00000000     -0.96006654
   C          0.71189725      0.00000000     -0.96006654
   H          0.00000000      0.00000000      2.14833657
   H         -2.11145475      0.00000000      0.78525808
   H          2.11145475      0.00000000      0.78525808
   H         -1.35853848      0.00000000     -1.82361985
   H          1.35853848      0.00000000     -1.82361985
