          12
 
   C         -1.20755722      0.69718349      0.00000000
   C         -1.20755722     -0.69718349      0.00000000
   C          0.00000000     -1.39436698      0.00000000
   C          1.20755722     -0.69718349      0.00000000
   C          1.20755722      0.69718349      0.00000000
   C          0.00000000      1.39436698      0.00000000
   H         -2.14397866      1.23782666      0.00000000
   H         -2.14397866     -1.23782666      0.00000000
   H          0.00000000     -2.47565332      0.00000000
   H          2.14397866     -1.23782666      0.00000000
   H          2.14397866      1.23782666      0.00000000
   H          0.00000000      2.47565332      0.00000000
