33
Coordinates from ORCA-job xan
  N   -1.62634633429038     -1.16194068900139     -0.40760802515355
  C   -0.56180951731657     -0.31773845017903      0.11936265844289
  C   -0.82333863980374      1.13403237980293     -0.30315977146112
  O   -0.24498953172130      1.65816931428396     -1.25008743161810
  C   0.78693358662392     -0.80542449295128     -0.37204842593411
  C   1.94709908996507     -0.08334596219506      0.29969033259999
  H   -1.49688990159780     -1.58114689564140     -1.31308915883278
  H   -0.62348493269828     -0.38929992856640      1.20628002536871
  H   0.85610547287866     -1.87815827426900     -0.17744888309666
  H   1.87227304512853     -0.20945803506094      1.38363308469131
  H   1.86900080563661      0.98449580892214      0.09090025384891
  N   -1.75972601540297      1.75121059551305      0.45220258753199
  H   -2.30324909324111      1.15750311553930      1.06695777870918
  C   -2.24508385984222      3.06709180687121      0.09508948196649
  H   -3.00314304016881      3.02532328381171     -0.68788295529553
  H   -1.41075535998006      3.65619205967314     -0.27318670869950
  H   -2.66739810528508      3.54526573236617      0.97406230979257
  C   -2.81926716298086     -1.29497671027284      0.22153168508092
  O   -3.07724999909927     -0.71040371452054      1.27414838620668
  C   -3.81011793841668     -2.22141583282489     -0.43570996254901
  H   -4.04145030461041     -3.02529950886818      0.25918535492222
  H   -3.44831342871267     -2.64696965356319     -1.36819815159336
  H   -4.72914646127929     -1.67110990256336     -0.62126825567278
  H   0.84303286943338     -0.64890885229309     -1.45127056385286
  C   3.29747779835037     -0.59544844928626     -0.18101481731006
  H   3.37917248752533     -0.47877451115328     -1.26285693456448
  H   3.37779960480017     -1.66668925205744      0.02875754347018
  C   4.46149573959422      0.12776109956427      0.47313418045894
  H   4.36258720226868      0.04888116646903      1.56316549924215
  H   4.40330041418958      1.18858518074637      0.22549944214017
  N   5.73020216854608     -0.38592332292009     -0.04492663087722
  H   6.50331236244568      0.11427682307280      0.37587250238502
  H   5.83950097906122     -1.35214792844841      0.23926656965283
