7
 
  O      1.59775368     -0.22644652     -0.02752025
  O      0.47496511      1.77146334     -0.18450988
  C      0.56040284      0.50807434     -0.07229434
  H     -0.42314163     -0.03974608     -0.00335370
  H      2.40394321      2.35207776     -0.27886580
  O      3.32462766      2.01895321     -0.26876004
  H      3.07796730      1.07413405     -0.17750953
