          10
 
   C         -1.84486866      0.10958504      0.00000000
   C         -0.60865822     -0.39942214      0.00000000
   C          0.60865822      0.39942214      0.00000000
   C          1.84486866     -0.10958504      0.00000000
   H         -2.72232397     -0.52576919      0.00000000
   H         -2.01556072      1.18164542      0.00000000
   H         -0.47628517     -1.47960453      0.00000000
   H          0.47628517      1.47960453      0.00000000
   H          2.72232397      0.52576919      0.00000000
   H          2.01556072     -1.18164542      0.00000000
