           8
 
   C          0.00000000      0.00000000     -0.76168944
   C          0.00000000      0.00000000      0.76168944
   H         -0.87860032      0.50726013     -1.15576506
   H          0.00000000     -1.01452026     -1.15576506
   H          0.87860032      0.50726013     -1.15576506
   H         -0.87860032     -0.50726013      1.15576506
   H          0.00000000      1.01452026      1.15576506
   H          0.87860032     -0.50726013      1.15576506
