          44
 
   C         -2.20609683     -0.15006076      0.85137699
   C         -1.91742173     -0.10259483     -0.74313492
   C         -3.22530169      0.56812471     -1.31181865
   C         -3.74807719      1.52486668     -0.19603532
   C         -3.52659986      0.69799124      1.11687280
   C         -0.69053979      0.81509584     -1.02850323
   C          0.64690604      0.19335793     -0.61889148
   C          1.59837623      1.08581760      0.10348488
   C          1.87462792      2.36824785     -0.40049277
   C          2.75697654      3.21695259      0.27099863
   C          3.35137103      2.80422373      1.46860723
   C          3.06365966      1.53754020      1.98826187
   C          2.19637349      0.68049907      1.30777432
   O         -1.77523589     -1.35118267     -1.33746792
   F         -3.02254109      1.23595623     -2.48244568
   F         -4.18312885     -0.37378580     -1.53106593
   F         -2.97277666      2.65134339     -0.15290233
   F         -5.03261409      1.90087979     -0.37123827
   F         -3.40710811      1.49977813      2.19955665
   F         -4.60860001     -0.10666761      1.30304170
   C         -2.28961664     -1.59646281      1.44589319
   F         -3.21310581     -2.35725916      0.84649316
   F         -1.17403351      0.46525050      1.54924662
   N          0.84129538     -1.02692005     -0.95833916
   C          2.09578227     -1.75261283     -0.74872329
   C          1.87673675     -2.86272997      0.28934509
   C          2.52127581     -2.34331478     -2.10159267
   F         -1.08547176     -2.20457801      1.33262447
   F         -2.58368110     -1.52751972      2.76956131
   H          2.89025666     -1.08150182     -0.39175902
   H          2.67925415     -1.54947640     -2.84190716
   H          3.45733275     -2.90413237     -1.98312655
   H          1.74676388     -3.02357827     -2.47833617
   H          1.58878041     -2.44931577      1.26229352
   H          1.08075529     -3.54078417     -0.04198101
   H          2.80284751     -3.43873936      0.40961809
   H          1.40585796      2.69646995     -1.32629110
   H          2.97380154      4.20273471     -0.13526795
   H          4.02958323      3.47005641      1.99828710
   H          3.51096590      1.21818121      2.92735240
   H          1.95728532     -0.29605555      1.71898989
   H         -0.81276001      1.78568709     -0.54965955
   H         -0.68102929      0.96673752     -2.11366447
   H         -0.79112579     -1.54651968     -1.31503532
