34
 
  C   -1.55150178265271      0.98018914002622      2.81036998139051
  C   -1.86693792711840      1.45962111449085      1.52759395645726
  C   -3.20495350268341      1.41640195942823      1.10546554410672
  C   -4.18792984380715      0.90308777299345      1.93753903510840
  C   -3.87166116080799      0.45477023691892      3.21607071801488
  C   -2.54947973331698      0.50569977727423      3.64729794532390
  P   -0.59389000030883      2.10700558853801      0.47479820706937
  C   0.80446959740373      2.91754658107990      1.21216733651593
  C   0.65575597537714      3.67110281538896      2.38794111855926
  C   1.75878049020451      4.26195636755813      2.98650910330913
  C   3.02111507165590      4.14917399232831      2.41211533139971
  C   3.17190097899595      3.42502726814782      1.23290340296735
  C   2.08227138397778      2.80158375065134      0.64382166847873
  C   -0.71880647155573      1.95611774739850     -1.28549382747910
  C   -0.05305888050342      2.85859662757959     -2.13198740149029
  C   -0.14200878162818      2.72204952491427     -3.50882140004300
  C   -0.91118395496504      1.70879361218955     -4.07495202909394
  C   -1.58420471661962      0.82060538193190     -3.24124478434932
  C   -1.48181902666327      0.92714499982619     -1.86327530068552
  H   -3.47299948305645      1.80037763523299      0.13115321262821
  H   -5.21232697316896      0.87257699480885      1.58998593719747
  H   -4.64350406730556      0.06790426239806      3.86659827974234
  H   -2.28795185366627      0.14732610091828      4.63452831828882
  H   -0.52310118871564      0.97488711601110      3.14507476895290
  H   -0.32475268979623      3.79315267414280      2.82756071039194
  H   1.62724501431228      4.83076430681417      3.89762241333226
  H   3.87532960370842      4.62290353051931      2.87646319672553
  H   4.14866242519965      3.32562306380939      0.77748907007485
  H   2.21880132973681      2.21051426730976     -0.25100200976583
  H   -1.98724861045528      0.21162811236558     -1.23023823103604
  H   -2.18211827934172      0.02591892050768     -3.66752118182075
  H   -0.98726599257748      1.61123256461022     -5.14903375740896
  H   0.38257397455682      3.42305136166702     -4.14464428475826
  H   0.52763607558531      3.66607083022038     -1.70788904810444
