16
B17    
 C -1.822687 -0.65263 -0.181243
 H -2.344427 -1.486381 0.28568
 O -2.617408 0.498674 0.103759
 C -0.406276 -0.552137 0.367708
 H -0.458627 -0.413247 1.450471
 H 0.110299 -1.495205 0.181108
 C 0.396823 0.588415 -0.254581
 H -0.059927 1.549788 -0.005842
 H 0.397163 0.493643 -1.344265
 H -2.294476 1.216419 -0.44594
 H -1.793211 -0.842577 -1.259562
 C 1.838481 0.619097 0.220511
 H 2.34679 1.498269 -0.186257
 H 1.865598 0.684852 1.313359
 O 2.470294 -0.578616 -0.229951
 H 3.369681 -0.582494 0.106411
