          26
 
   C         -4.49170172     -0.26562228      0.00000000
   C         -3.18736457      0.53320328      0.00000000
   C         -1.93605332     -0.34906822      0.00000000
   C         -0.62528627      0.44163965      0.00000000
   C          0.62528627     -0.44163965      0.00000000
   C          1.93605332      0.34906822      0.00000000
   C          3.18736457     -0.53320328      0.00000000
   C          4.49170172      0.26562228      0.00000000
   H         -5.36385395      0.39257860      0.00000000
   H         -4.56137898     -0.90841872     -0.88207698
   H         -4.56137898     -0.90841872      0.88207698
   H         -3.16330469      1.19190743      0.87541926
   H         -3.16330469      1.19190743     -0.87541926
   H         -1.96084612     -1.00870869      0.87598351
   H         -1.96084612     -1.00870869     -0.87598351
   H         -0.60148339      1.10108273      0.87598470
   H         -0.60148339      1.10108273     -0.87598470
   H          0.60148339     -1.10108273      0.87598470
   H          0.60148339     -1.10108273     -0.87598470
   H          1.96084612      1.00870869      0.87598351
   H          1.96084612      1.00870869     -0.87598351
   H          3.16330469     -1.19190743      0.87541926
   H          3.16330469     -1.19190743     -0.87541926
   H          4.56137898      0.90841872      0.88207698
   H          5.36385395     -0.39257860      0.00000000
   H          4.56137898      0.90841872     -0.88207698
