23
Coordinates from ORCA-job xad
  N   1.06312763625624      0.57758999149761     -0.08025714700419
  C   -0.14704602017749      0.67771594041830      0.71468174148420
  C   -1.26507830378595     -0.16787812013132      0.09405134708268
  O   -2.21782837856668      0.34926927644598     -0.49665257907418
  C   -0.56242129909050      2.13843570383139      0.76575836756798
  O   -0.70030427747994      2.66128268758072     -0.54404162740399
  H   1.18338664615449      1.27888382389955     -0.79447709615725
  H   0.07715306253402      0.30049359030373      1.71348075262728
  H   -1.48860786749772      2.23000489975564      1.33572255183147
  H   0.21345014558235      2.71925276064097      1.26114648099705
  H   -1.43272764329664      2.14531134128866     -0.91679541035784
  N   -1.09283866806808     -1.49250693277004      0.24977242465051
  H   -0.20587046823492     -1.78491821465708      0.64688816124752
  C   -1.98199806698191     -2.45771024647165     -0.36091365150126
  H   -1.55195077979957     -2.87733854228238     -1.26979746797163
  H   -2.19065988142364     -3.26424758693642      0.33706248132687
  H   -2.90663543641669     -1.94899701656338     -0.61381312222599
  C   1.92346489034628     -0.45869921656379      0.03460532764110
  O   1.72394304746960     -1.39667531445026      0.81020969654832
  C   3.15648280289327     -0.38794312029695     -0.82777980225679
  H   4.02581012787213     -0.31033032217779     -0.17849947397812
  H   3.14817078169601      0.45371704049938     -1.51522195429112
  H   3.24389095001534     -1.31581942286087     -1.38691400078261
