           6
 
   H          0.00037485      2.26246822      0.00000000
   F         -0.00011015      1.02398179      0.00000000
   C         -0.00011015     -0.64466754      0.00000000
   H          1.05368609     -0.88007204      0.00000000
   H         -0.52692032     -0.88085522      0.91235449
   H         -0.52692032     -0.88085522     -0.91235449
