26
Coordinates from ORCA-job xah
  N   -0.11893761002174      0.91032210789821     -0.33674602077472
  C   -0.09880711757647     -0.39221263043239      0.29947961025129
  C   1.26074827334708     -1.08918523407467      0.27698237356462
  O   1.44780777759018     -2.07642324771751      0.97852866463091
  C   -1.09423187612524     -1.32191903443201     -0.40367879696446
  C   -2.48421198200676     -0.73372281962141     -0.36972799060893
  O   -2.78678821108359      0.24058013432764     -1.05506410704580
  N   -3.35279612659785     -1.31918572749070      0.48776080470432
  H   -0.91908896328572      1.08094607195611     -0.93646756409994
  H   -0.35441141803871     -0.29845081375853      1.35749213212730
  H   -1.03729338854777     -2.29556956664255      0.07761056890303
  H   -0.80244558616289     -1.42744788793023     -1.44866864343663
  H   -4.27228258996686     -0.92609758363147      0.58604652281170
  H   -3.08539742119215     -2.10047737759596      1.05510406224322
  N   2.14987230326848     -0.59203535339571     -0.60751815492776
  H   1.90911382123119      0.28634107733790     -1.03478658920416
  C   3.50360622191245     -1.09473773115017     -0.67999750104997
  H   3.84683866676455     -1.09617985663432     -1.71137173563285
  H   4.18524632661656     -0.49738636672048     -0.07498621146349
  H   3.50043884766489     -2.11059769924328     -0.29759610515561
  C   0.39148866374810      1.98214915395395      0.35492669570466
  O   1.10178069429402      1.83483049576118      1.33890804505846
  C   0.01606541450936      3.33463636766806     -0.19749414996072
  H   -0.80520857650207      3.73419045651465      0.39590267516560
  H   -0.29794057133452      3.28666719120580     -1.23718482878976
  H   0.86257942749547      4.00652587384789     -0.09408175605029
