          33
 
   N         -0.88194512      2.48608527     -0.12352430
   C          0.36283888      1.89141227     -0.14769130
   C          0.23129488      0.52120527     -0.11581730
   C         -1.18053812      0.25505727     -0.07028430
   C         -1.92928912     -0.92939373     -0.02412930
   C         -3.31625912     -0.84611273      0.01239570
   C         -3.96834412      0.40756127      0.00412770
   C         -3.23946112      1.59158927     -0.04052830
   C         -1.84773012      1.50530827     -0.07731130
   H         -1.05103112      3.47445927     -0.14665730
   H          1.25069688      2.50083027     -0.18705430
   H         -1.46122412     -1.90479073     -0.01508230
   H         -5.04531412      0.46510827      0.03268070
   H         -3.75084612      2.54550327     -0.04599130
   O         -3.98125612     -2.04504373      0.05605770
   C         -5.39700012     -1.99538573      0.09645070
   H         -5.80652512     -1.51257473     -0.79357830
   H         -5.75431412     -1.47481973      0.98768270
   H         -5.72944312     -3.02863373      0.12806770
   C          1.31398088     -0.51418573     -0.11902230
   C          2.71312288      0.07909127     -0.23711330
   N          3.70278688     -0.98487173     -0.23895930
   C          5.04686488     -0.85084073     -0.00939830
   C          5.49827788      0.47325027      0.57307370
   H          1.14947088     -1.20618973     -0.95194330
   H          1.26449288     -1.11292073      0.79460270
   H          2.89869788      0.73426627      0.61290770
   H          2.77550888      0.68712927     -1.14602630
   H          3.46355688     -1.83905373     -0.71940030
   O          5.82706488     -1.76285073     -0.23922030
   H          5.01767288      0.66003427      1.53341370
   H          5.25062488      1.30008927     -0.09297730
   H          6.57356688      0.42968727      0.71024970
