          11
 
   N          0.00000000      0.00000000     -1.43307414
   C          1.19302708      0.00000000     -0.91198738
   C          1.20829931      0.00000000      0.48312359
   C          0.00000000      0.00000000      1.16461261
   C         -1.20829931      0.00000000      0.48312359
   C         -1.19302708      0.00000000     -0.91198738
   H          2.07122131      0.00000000     -1.54994896
   H          2.16660468      0.00000000      0.98856437
   H          0.00000000      0.00000000      2.24895830
   H         -2.16660468      0.00000000      0.98856437
   H         -2.07122131      0.00000000     -1.54994896
