           6
 
   BI         0.00000000      0.00000000      1.00000967
   H         -0.71818100      1.24392598      2.02125966
   H         -0.71818100     -1.24392598      2.02125966
   H          1.43636200      0.00000000      2.02125966
   CL         0.00000000      0.00000000     -2.89550833
   H          0.00000000      0.00000000     -4.16828033
