           5
 
   C         -0.28270970     -0.29484670      0.00000000
   O          0.11290644      0.95853474      0.00000000
   O          0.43575156     -1.28174506      0.00000000
   H         -1.37330209     -0.37398373      0.00000000
   H          1.10735379      0.99204075      0.00000000
