8

   N     0.000000    0.000000    3.415281
   C     0.000000    0.000000    4.557070
   H     0.000000    0.000000    5.624831
   I     0.000000    0.000000    0.309915
   C     0.000000    0.000000   -1.826797
   F     0.000000    1.244435   -2.308849
   F     1.077712   -0.622217   -2.308849
   F    -1.077712   -0.622217   -2.308849
