17

C       -0.669902    1.274703    0.002052 
C        0.876480    1.248952   -0.002162 
C        0.004594   -0.978217   -0.001194 
C       -1.071174   -0.180033   -0.000116 
C        1.250808   -0.226950   -0.000429 
C       -2.502487   -0.589770    0.000004 
C        2.486734   -0.729165    0.001472 
H       -1.080660    1.793489   -0.868934 
H       -1.075687    1.788739    0.878235 
H        1.290724    1.753343    0.870614 
H        1.284867    1.748699   -0.880421 
H       -3.022770   -0.189446   -0.875043 
H       -2.614128   -1.673099   -0.001516 
H        3.359600   -0.090300    0.002292 
H        2.658608   -1.797149    0.002287 
H       -3.021876   -0.192009    0.876755 
H       -0.029000   -2.059398   -0.002038 
