19
 
C          0.79416        1.24024        1.84130
C          0.04240       -0.00063        1.36030
N          0.02009       -0.04390       -0.15631
H          0.97851       -0.04434       -0.53629
H         -0.46290       -0.88091       -0.51535
H         -0.45955        0.78595       -0.53676
H         -0.99515       -0.01571        1.71303
H          0.53360       -0.92306        1.69008
H          0.82611        1.24905        2.93716
H          1.82411        1.24870        1.46507
H          0.29774        2.16158        1.50908
O          2.19829       -0.03184       -1.73615
S          1.20024        0.00791       -2.85660
C          2.28235        0.02537       -4.41650
O          0.39149       -1.22135       -2.94330
O          0.43030        1.26468       -2.88490
F          1.50161        0.02304       -5.52456
F          3.06534        1.13253       -4.44250
F          3.08168       -1.06964       -4.44764
