           6
 
   C          0.96745826     -0.11636709      0.00000000
   N         -0.30997205     -0.08985970      0.00000000
   C         -1.52110730     -0.22012413      0.00000000
   H          1.50098112     -0.12812485      0.94177700
   H          1.50098112     -0.12812485     -0.94177700
   H         -2.13834115      0.68260062      0.00000000
