          23
 
   C         -1.38190280      0.43425110     -1.24733889
   C         -0.89611358     -0.30143731      0.00000000
   C          0.63394907     -0.42425408      0.00000000
   C          1.42506453      0.87859696      0.00000000
   C          2.92723260      0.62027864      0.00000000
   C         -1.38190280      0.43425110      1.24733889
   C         -1.48228651     -1.71210183      0.00000000
   H         -1.04362219      1.46982878     -1.26155986
   H         -1.01969974     -0.05525201     -2.15313922
   H         -2.47237249      0.44139976     -1.28199411
   H          0.92928335     -1.01194217     -0.87607922
   H          0.92928335     -1.01194217      0.87607922
   H          1.16198296      1.47416154     -0.87532044
   H          1.16198296      1.47416154      0.87532044
   H          3.22144021      0.04815269     -0.87982628
   H          3.49448939      1.54982535      0.00000000
   H          3.22144021      0.04815269      0.87982628
   H         -1.04362219      1.46982878      1.26155986
   H         -2.47237249      0.44139976      1.28199411
   H         -1.01969974     -0.05525201      2.15313922
   H         -1.15980858     -2.26611028     -0.88295480
   H         -1.15980858     -2.26611028      0.88295480
   H         -2.57293694     -1.67988656      0.00000000
