          26
 
   C         -0.12429040      1.43182760     -1.35712086
   C          0.00000000      0.00000000     -0.79483122
   C          0.00000000      0.00000000      0.79483122
   C         -0.12429040     -1.43182760      1.35712086
   C         -1.17785388     -0.82355244     -1.35712086
   C          1.30214427     -0.60827516     -1.35712086
   C         -1.17785388      0.82355244      1.35712086
   C          1.30214427      0.60827516      1.35712086
   H         -1.09539134      1.87701465     -1.13485477
   H          0.64942060      2.09749330     -0.96959370
   H         -0.01857205      1.41069951     -2.44493256
   H         -1.09539134     -1.87701465      1.13485477
   H          0.64942060     -2.09749330      0.96959370
   H         -0.01857205     -1.41069951      2.44493256
   H         -2.14119278     -0.48633192     -0.96959370
   H         -1.21241559     -0.72143362     -2.44493256
   H         -1.07784670     -1.88714405     -1.13485477
   H          2.17323804      0.01012940     -1.13485477
   H          1.49177219     -1.61116139     -0.96959370
   H          1.23098764     -0.68926589     -2.44493256
   H         -2.14119278      0.48633192      0.96959370
   H         -1.21241559      0.72143362      2.44493256
   H         -1.07784670      1.88714405      1.13485477
   H          2.17323804     -0.01012940      1.13485477
   H          1.49177219      1.61116139      0.96959370
   H          1.23098764      0.68926589      2.44493256
