          17
 
   C          0.15291594      0.34302795      1.12850440
   C          1.06338226      0.88468314      0.00000000
   H          1.13871729      1.97663453      0.00000000
   C          0.15291594      0.34302795     -1.12850440
   H          2.06887162      0.44485198      0.00000000
   C         -1.19439054      0.88508714     -0.67029824
   H          0.44191404      0.57039103     -2.15774877
   H          1.05365826     -1.66865277      1.17774942
   H         -2.02940884      1.10525522     -1.32872647
   C         -1.19439054      0.88508714      0.67029824
   H          1.05365826     -1.66865277     -1.17774942
   C          0.15291594     -1.18640960     -0.78053428
   H         -0.71309037     -1.70178378      1.20660943
   H          0.44191404      0.57039103      2.15774877
   H         -2.02940884      1.10525522      1.32872647
   H         -0.71309037     -1.70178378     -1.20660943
   C          0.15291594     -1.18640960      0.78053428
