          10
 
   C         -1.20636630      0.24908101     -0.35084292
   C          0.20343171      0.39973012     -0.18374300
   C          1.06835997     -0.52194355      0.47990305
   H          0.57274043     -1.30792521      1.04636789
   H          1.90165373     -0.04084411      1.00058899
   H         -1.57660583      0.65508674     -1.29741199
   H         -1.58420253      0.99203156      0.39549454
   H         -1.61054943     -0.72651226     -0.08845360
   H          0.66089984      1.29941909     -0.60233964
   H          1.57063841     -0.99812339     -0.39956332
