9
 
  C   -1.31197436299062     -0.10703497266268     -0.10141765895812
  S   0.07115913754478      0.94415904708116      0.41230047782507
  C   1.44036498766432     -0.16593752073038     -0.00680782684664
  H   -2.22758525986230      0.44872605453485      0.09161711555917
  H   -1.25610782998323     -0.34082022078927     -1.16559782344983
  H   -1.33218184836250     -1.03284625056956      0.47293864924257
  H   2.36378712809953      0.36063126596683      0.22801914870778
  H   1.43599451204105     -0.41511849199420     -1.06891044221009
  H   1.39554353584896     -1.08175891083677      0.58185836013010
