           5
 
   O          0.21923716      0.95151453      0.00000000
   C         -0.31203871     -0.28547835      0.00000000
   O          0.31458794     -1.30608459      0.00000000
   H          1.18437061      0.85550562      0.00000000
   H         -1.40615700     -0.21545721      0.00000000
