          15
 
   C         -0.58836797     -0.48620140     -1.02338805
   C         -1.20484224     -0.26405302      0.36026043
   C          0.58836797      0.48620140     -1.02338805
   C          1.20484224      0.26405302      0.36026043
   C          0.00000000      0.00000000      1.29364281
   H         -1.29367853     -0.32014664     -1.83622304
   H         -0.21314639     -1.50857992     -1.10818319
   H         -1.84873256      0.61539449      0.32627124
   H         -1.81692713     -1.10042758      0.69245800
   H          0.21314639      1.50857992     -1.10818319
   H          1.29367853      0.32014664     -1.83622304
   H          1.84873256     -0.61539449      0.32627124
   H          1.81692713      1.10042758      0.69245800
   H          0.19197380     -0.85297777      1.94198319
   H         -0.19197380      0.85297777      1.94198319
