          11
 
   C         -1.03666222      1.00226747      0.00000000
   C         -0.99802842     -0.37323986      0.00000000
   C          1.15125899     -0.89785440      0.00000000
   N          1.59581209      0.37970345      0.00000000
   N          1.23898727      1.47513174      0.00000000
   H         -1.16993317      1.56007075     -0.91825218
   H         -1.16993317      1.56007075      0.91825218
   H         -1.19957230     -0.92033561     -0.91402853
   H         -1.19957230     -0.92033561      0.91402853
   H          1.39382161     -1.43273935      0.91491930
   H          1.39382161     -1.43273935     -0.91491930
