           6
 
   F          0.00000000      0.00000000     -1.88993626
   C          0.00000000      0.00000000     -0.48156276
   H         -0.51236000      0.88743354     -0.12780248
   H         -0.51236000     -0.88743354     -0.12780248
   H          1.02471999      0.00000000     -0.12780248
   CL         0.00000000      0.00000000      2.75490646
