          13
 
   O          2.54770164      0.17637118     -0.96243673
   P          1.35740121      0.08791102      0.07309955
   O          1.26604298      1.25023263      0.98046732
   O          0.00000000      0.00000000     -0.84441869
   P         -1.35740121     -0.08791102      0.07309955
   O         -1.26604298     -1.25023263      0.98046732
   O         -1.48629943      1.36580219      0.69233965
   O         -2.54770164     -0.17637118     -0.96243673
   O          1.48629943     -1.36580219      0.69233965
   H          2.75416576     -0.67569426     -1.38395250
   H         -0.58663145      1.63952936      1.02269206
   H         -2.75416576      0.67569426     -1.38395250
   H          0.58663145     -1.63952936      1.02269206
