30
 
  C   -0.79133024130603      0.11423296304560      1.37908978550851
  C   -1.18523397505660     -0.09033058398484      0.06958354046901
  C   -0.50011562006596     -1.04697462400341     -0.74713287775729
  C   0.59887055836531     -1.71812796668185     -0.24376032522951
  C   1.01321059307268     -1.50471744489772      1.11103699805902
  C   0.34707557791181     -0.58434756888666      1.89819340859028
  C   1.05012088486130      0.21630331182326      2.80641579239814
  C   2.41264229302088     -0.05457245625250      2.91979759582557
  N   3.08835667214236     -0.92204511068654      2.10839090817160
  C   2.40729716519998     -1.58710707502357      1.19027829810297
  C   1.69734689678630     -1.99816112354481     -1.06441108930637
  C   1.54972249092400     -1.66038264526240     -2.40888220403819
  N   0.48911808188030     -0.95768115800985     -2.90525874737462
  C   -0.47637846377733     -0.60292639101466     -2.07241252319229
  C   -1.66296240807158      0.97462614955841     -0.70345917970924
  C   -1.81095245836517      2.18902629051214     -0.03479798067018
  N   -1.38266657511376      2.41182763692404      1.24364704354623
  C   -0.82730957727065      1.40905640868774      1.90534069257455
  C   -1.44473134564399      0.59856335266519     -2.18706165316406
  C   2.92555840347595     -2.17761056438300     -0.14344170590204
  C   0.19354286222978      1.47668741150667      3.06754287041393
  H   3.04536119334869      0.52482782985594      3.58149350063029
  H   2.34909165804705     -1.83100736068246     -3.12022731118121
  H   -2.15931427432053      3.07534947822613     -0.55167483785436
  H   -0.98557516092820      1.40737102027653     -2.75385340418183
  H   -2.37363064645275      0.32334249599566     -2.69312305797908
  H   3.22475890557533     -3.22370345809399     -0.03610161081482
  H   3.79378967504969     -1.62405736364606     -0.49730450335904
  H   -0.30387887759142      1.45480094395743      4.04081655656567
  H   0.78021571207258      2.39273760201958      3.01727602085835
