          37
 
   O          3.64237865      0.00772973      0.51900004
   C          2.59137858     -0.55327031      0.32000002
   O          1.48137849     -0.34027030      1.05800008
   H          1.73137851      0.36472976      1.67800013
   C          2.39037856     -1.56327039     -0.79400006
   H          3.09137861     -2.37427045     -0.60300005
   H          2.68737858     -1.07727035     -1.72100013
   N          1.06537846     -2.09827043     -0.91800007
   H          0.35137841     -1.57527039     -1.41200011
   C          0.63937843     -3.02827050     -0.01800000
   O          1.38337848     -3.61127054      0.75700006
   C         -0.86762169     -3.24327052     -0.03800000
   H         -1.09862170     -4.08027058      0.61200005
   H         -1.21062171     -3.45327053     -1.05100008
   N         -1.55562174     -2.05927043      0.43400003
   H         -1.68462175     -1.88527041      1.42200011
   C         -1.82462176     -1.02127035     -0.37700003
   O         -1.57962174     -1.01927035     -1.58700012
   C         -2.50962181      0.15572974      0.31600002
   N         -2.18862179      0.13972974      1.74100013
   H         -1.25662172      0.51872977      1.87500014
   H         -2.82562184      0.73972979      2.25000017
   H         -3.58262189     -0.03927027      0.22600002
   C         -2.21362179      1.46872984     -0.42700003
   H         -2.50562181      1.34072983     -1.46900011
   H         -2.84962184      2.24372990      0.00700000
   C         -0.77562168      1.89472987     -0.34600003
   C         -0.30562164      2.61872993      0.75700006
   H         -0.99862170      2.91172995      1.53600012
   C          1.03237846      3.00872996      0.84400006
   H          1.37237848      3.57773000      1.70000013
   C          1.92037852      2.68872993     -0.18000001
   H          2.95737860      2.98472996     -0.11600001
   C          1.45937849      1.98472988     -1.29200010
   H          2.13937854      1.75172986     -2.10100016
   C          0.12737839      1.58372985     -1.37000010
   H         -0.23062164      1.03772981     -2.23200017
