6
 
  N      1.33903020      1.02134036      0.06005448
  N      0.13642374      1.07964684      0.06992628
  N      2.53911950      0.97428494      0.05221327
  O     -2.64213619      0.84113657     -0.01621466
  H     -1.65873038      0.78859232      0.00903116
  H     -2.77813149      1.79161935      0.00241115
