          36
 
   C          0.94051819      0.63393121     -0.65987663
   C          0.29979979     -0.65801727     -0.03772382
   C          1.24771366     -0.97572656      1.14074400
   C          2.29829531      0.20541104      1.14678667
   C          3.56358202     -0.15630484      0.25918278
   C          1.98996582      0.09359584     -1.64010240
   O          1.61465682      1.24743828      0.44892723
   C          2.66343256      0.69577007      2.54052999
   C         -0.00335984      1.68418481     -1.22585948
   C          3.19422380     -0.32385828     -1.20144512
   N          0.36932649     -0.93257522      2.34681759
   N         -0.80318980     -0.63852222      2.02613398
   N         -0.95659858     -0.44539760      0.67531614
   C         -3.66955062     -0.56272812     -1.85811047
   C         -4.79459320     -0.29319918     -1.07531176
   C         -4.63207131     -0.07657238      0.29894730
   C         -3.36979395     -0.12000824      0.88816743
   C         -2.23878343     -0.39523768      0.09589845
   C         -2.39717014     -0.61637875     -1.28338960
   H          0.19792493     -1.45958600     -0.77510542
   H          1.72709421     -1.95422864      1.10848363
   CL         4.34817516     -1.67958367      0.92092504
   CL         4.82750724      1.19338452      0.33251791
   CL         1.47438587     -0.13476921     -3.29591091
   H          3.20186076     -0.08598340      3.08449950
   H          1.74406037      0.92848520      3.08209001
   H          3.28529153      1.59072626      2.47254855
   H         -0.59160071      1.29305898     -2.05683363
   H          0.57983402      2.54630994     -1.56648673
   H         -0.68149590      1.99705412     -0.42679597
   CL         4.40878534     -0.97428540     -2.27593476
   H         -3.77435528     -0.73549992     -2.92737938
   H         -5.78290745     -0.25113002     -1.52693897
   H         -5.49811192      0.13543439      0.92281662
   H         -1.53599253     -0.82274257     -1.91110947
   H         -3.24685923      0.04755050      1.95298170
