26
Coordinates from ORCA-job xab
  N   -1.19831020448868      0.12592865145513     -0.22671590660379
  C   0.11595591479397      0.41482599880727     -0.75439608627027
  C   1.23114159395771     -0.04843035113196      0.18331033731894
  O   1.08206783627800     -0.10019501914855      1.39624672284689
  C   0.10726513237375      1.95036302859460     -0.82901594826288
  C   -0.73374968250289      2.33876212599574      0.38717060102833
  C   -1.83804981737786      1.28565941703342      0.39478982472882
  H   0.25351047369562     -0.03013134988975     -1.74215479777866
  H   -0.39132524407786      2.25530098024803     -1.74967527756970
  H   1.11154471851956      2.37042599584614     -0.82160597848229
  H   -1.12367566842790      3.35172332931727      0.32055381311429
  H   -0.13585521880659      2.24902860969368      1.29147202416179
  H   -2.70684065103500      1.59340902656089     -0.19033837711222
  H   -2.18094578408214      1.02329842245586      1.39286523859599
  N   2.39700599904729     -0.34274400520647     -0.45020221572419
  H   2.41902431880967     -0.29312278334453     -1.45335245393370
  C   3.59808467878084     -0.70839168981345      0.27057497844624
  H   3.33659678542401     -0.75206815111281      1.32320744977584
  H   3.96178688792545     -1.68316163312777     -0.04794046615125
  H   4.38521414528008      0.03024010116105      0.12906916055023
  C   -1.74490735962223     -1.11516110834670     -0.08235638531976
  O   -2.83550884236023     -1.27328179324275      0.45402997813215
  C   -0.93061191616810     -2.26454296608820     -0.62951959354561
  H   0.01257306887577     -2.35667095009796     -0.09196026412772
  H   -1.50667894714813     -3.17422036682785     -0.50013117821045
  H   -0.70811121766413     -2.12674551979034     -1.68718219960702
