          51
 
   C         -2.75756744      1.35757311     -0.55503468
   C         -4.25162077      1.26001515     -0.21400482
   C         -4.79737201     -0.12095099     -0.58474328
   C         -4.02779483     -1.19740165      0.19621159
   C         -2.53061418     -1.11031244      0.02313168
   C         -1.87543418      0.27099711      0.11672505
   C         -0.47996348      0.26561109     -0.60212405
   C          0.33619671     -0.99449737     -0.31862125
   C         -0.30726066     -2.15109014     -0.05466545
   C         -1.75841211     -2.21705431     -0.00407615
   C          0.28968910      1.60006119     -0.37998380
   C          1.79736455     -0.91566425     -0.63432287
   C          1.78191291      1.56235173     -0.76462612
   C          2.48191356      0.36875956     -0.10672514
   C         -1.74590927      0.56111799      1.63754876
   C          2.75003552     -2.05428561     -0.22898238
   C          3.93617878      0.11901669     -0.57539382
   C          2.39915500      0.45656176      1.43067828
   C          4.16448641     -1.39339725     -0.27375731
   O         -6.21488887     -0.22756968     -0.37244719
   C          5.00269772      1.04031519      0.01670755
   H         -2.37546872      2.34773046     -0.27784956
   H         -2.64768066      1.26341154     -1.64602335
   H         -4.40927079      1.42223080      0.86418887
   H         -4.81512845      2.03407697     -0.75027589
   H         -4.66500349     -0.28503314     -1.66256151
   H         -4.27815473     -1.04385270      1.26311647
   H         -4.38705555     -2.19690129     -0.07816612
   H         -0.70281276      0.20709211     -1.68595542
   H          0.26050287     -3.07464048      0.04695043
   H         -2.23210461     -3.19903983      0.02990270
   H         -0.21576091      2.39330147     -0.94296624
   H          0.23089117      1.88112794      0.67550563
   H          1.85680248     -0.82496474     -1.73649121
   H          1.89406688      1.46927974     -1.85617084
   H          2.25407918      2.50933544     -0.46488345
   H         -2.70507866      0.38957764      2.13887155
   H         -1.00119604     -0.10916772      2.08267926
   H         -1.45430174      1.60074344      1.82997279
   H          2.66698147     -2.91875075     -0.89766062
   H          2.51130615     -2.39805757      0.78515307
   H          3.93281426      0.25274837     -1.66863540
   H          1.36673469      0.33371946      1.77502569
   H          3.00367748     -0.32570924      1.90388499
   H          2.76805093      1.42958769      1.77926405
   H          4.81140551     -1.85158206     -1.03140553
   H          4.67236867     -1.50718618      0.69287614
   H         -6.36749642     -0.10202307      0.57575011
   H          5.06944860      0.91047559      1.10464562
   H          4.77463934      2.09502022     -0.19014736
   H          5.98995137      0.81729299     -0.41008946
