           6
 
   N         -0.92591642     -0.19600844     -0.21712272
   O          1.40408804     -0.24477239     -0.12485395
   H         -1.07828243     -0.69971666      0.65200752
   H         -1.11401248      0.78373122     -0.02270988
   H          0.19421422     -0.30591036     -0.46774795
   H          1.51990907      0.66267663      0.18042698
