           6
 
   BI         0.00000000      0.00000000      1.03200467
   H         -0.71872200      1.24486302      2.05029867
   H         -0.71872200     -1.24486302      2.05029867
   H          1.43744400      0.00000000      2.05029867
   BR         0.00000000      0.00000000     -2.88356933
   H          0.00000000      0.00000000     -4.29933133
