          15
 
   N          0.32088770     -0.22336761     -2.13765847
   N         -1.55612611      0.02104710     -0.91906023
   N         -1.37712337      0.37150733      2.09827456
   N          0.92734950      0.21559418      1.80419214
   N          1.98256443     -0.10787260     -0.34966106
   H         -1.19728919      0.23214370      3.07854914
   H         -2.25028796      0.00817608      1.75056415
   H          2.94762028      0.07614317      1.45413962
   H          0.90259378     -0.42258317     -2.93503747
   H         -1.61785469     -0.24751430     -3.03323004
   C         -0.44813948      0.05985648     -0.10730938
   C          0.73680506     -0.09375729     -0.83587186
   C          1.97682175      0.06159831      0.97510124
   C         -0.30455053      0.20628322      1.28357591
   C         -1.04327117     -0.15725459     -2.12656823
