          33
 
   N         -0.75879794      2.64944382      0.52570803
   C         -1.70342794      2.19564782     -0.36801297
   C         -1.25059094      1.05631082     -0.99273197
   C          0.04872906      0.79109182     -0.44690997
   C          1.00997106     -0.21263618     -0.67506697
   C          2.17755806     -0.19647918      0.06725003
   C          2.42336906      0.80414682      1.03446103
   C          1.50346006      1.81624682      1.26206403
   C          0.32069906      1.80023982      0.51228003
   H         -0.87910494      3.43007082      1.14469703
   H         -2.64597894      2.70749682     -0.47401097
   H          0.85963906     -0.99771318     -1.40523197
   H          3.33935806      0.75816582      1.60805703
   H          1.69241306      2.57931382      2.00620803
   O          3.10279006     -1.21164518     -0.11138097
   C          4.24399806     -0.78545618     -0.85119797
   H          4.76568406      0.02822582     -0.34291897
   H          3.95428906     -0.45205218     -1.85064997
   H          4.90486306     -1.64483918     -0.92990097
   C         -2.02699294      0.16276182     -1.90913497
   C         -2.87742094     -0.84976918     -1.11739397
   N         -2.10390494     -1.58180618     -0.13048197
   C         -2.02416994     -1.15797318      1.17200003
   C         -0.93209894     -1.81684718      1.98803103
   H         -1.34147494     -0.37429418     -2.57004897
   H         -2.69197994      0.74420682     -2.55209297
   H         -3.35462194     -1.55578718     -1.79952997
   H         -3.65397694     -0.32548218     -0.56489097
   H         -1.35715794     -2.16995018     -0.45858397
   O         -2.77156894     -0.31334118      1.64319303
   H         -0.05862694     -1.16321618      1.98135203
   H         -0.63860394     -2.78798518      1.59204703
   H         -1.27632094     -1.92609618      3.01282303
