          48
 
   C          0.82578326      0.56551837      1.34547284
   C          1.72693977      0.07171955      0.45354699
   C          2.97929530      0.81467689      0.17376040
   C          3.63827148      1.54638315      1.18296177
   C          4.79768934      2.27153383      0.90354732
   C          5.33239059      2.27565064     -0.39011325
   C          4.69706649      1.54402715     -1.39998730
   C          3.53811056      0.81789528     -1.12088201
   H          3.24499351      1.52099974      2.19699210
   H          5.29431748      2.82223138      1.70062975
   H          6.23995173      2.83598633     -0.60647136
   H          5.10455809      1.54068759     -2.40946860
   H          3.04625256      0.25544359     -1.91084397
   C          1.50744329     -1.18334809     -0.31329676
   C          0.30991992     -1.42303802     -1.03431151
   C          0.11938775     -2.64479178     -1.70575678
   C          1.11071974     -3.62156057     -1.68581335
   C          2.30551909     -3.38904031     -0.98904418
   C          2.49675039     -2.18074580     -0.31836438
   N         -0.62821361     -0.36961149     -1.10255996
   H         -0.80806184     -2.79164544     -2.25288326
   H          0.96191899     -4.55857394     -2.21934814
   H          3.08720049     -4.14615187     -0.97500489
   H          3.42121513     -1.99760371      0.22483296
   N         -1.83266782     -0.73034470     -1.17759425
   C         -2.76813849      0.33636545     -1.25567940
   C         -4.11776614     -0.04921240     -1.21172256
   C         -5.12526761      0.91721420     -1.24157822
   C         -4.78913232      2.27297257     -1.32001353
   C         -3.44011177      2.65989644     -1.37038004
   C         -2.43002729      1.70264372     -1.33739180
   H         -4.35012620     -1.10945447     -1.14108818
   H         -6.16994596      0.61494514     -1.20196700
   H         -5.57235327      3.02847733     -1.34511929
   H         -3.18241493      3.71583147     -1.43450673
   H         -1.38110863      1.98383555     -1.36705732
   H          1.02311317      1.56487721      1.73629074
   C         -0.41164503     -0.04866977      1.83463526
   C         -1.50868474      0.78482778      2.13228769
   C         -2.72532242      0.24913909      2.55547944
   C         -2.86453057     -1.13365836      2.71251366
   C         -1.77256306     -1.97181458      2.45364305
   C         -0.55877293     -1.43743175      2.02437158
   H         -1.40698307      1.86057195      1.99768902
   H         -3.56721171      0.90981805      2.75360427
   H         -3.81308718     -1.55535890      3.03942108
   H         -1.86814679     -3.04760477      2.58915316
   H          0.28347528     -2.09450873      1.82741494
