          10
 
   C          1.14670059      0.00000000      0.39717314
   C          0.66423931      0.00000000     -1.01893905
   C         -0.66423931      0.00000000     -1.01893905
   C         -1.14670059      0.00000000      0.39717314
   N          0.00000000      0.00000000      1.17428675
   O          2.27853374      0.00000000      0.79809305
   O         -2.27853374      0.00000000      0.79809305
   H          1.34982375      0.00000000     -1.85374454
   H         -1.34982375      0.00000000     -1.85374454
   H          0.00000000      0.00000000      2.18054805
