          33
 
   N         -1.83490194     -2.93423491      0.07394033
   C         -0.47619994     -3.06434291     -0.12050567
   C          0.08455006     -1.83089391     -0.36342567
   C         -0.99489194     -0.88366891     -0.31598667
   C         -1.06726194      0.51195009     -0.48946367
   C         -2.30285594      1.12800209     -0.39512867
   C         -3.47746294      0.38961709     -0.12843367
   C         -3.43192694     -0.98387191      0.05035633
   C         -2.18217494     -1.60844591     -0.04398667
   H         -2.47166394     -3.69191391      0.23920133
   H         -0.00596094     -4.03358091     -0.07789367
   H         -0.19406694      1.11120809     -0.71180267
   H         -4.42187694      0.91535409     -0.08770467
   H         -4.33519394     -1.54814091      0.24339533
   O         -2.39392694      2.49136909     -0.61215267
   C         -2.55748694      3.22766609      0.59707633
   H         -1.70051294      3.07990809      1.25888733
   H         -3.46754894      2.93086709      1.12292833
   H         -2.62659394      4.27573509      0.31799833
   C          1.53266906     -1.52361091     -0.58072367
   C          2.15639606     -0.83901291      0.64679633
   N          3.55646706     -0.49870191      0.47716333
   C          4.06756706      0.64795109     -0.07053967
   C          3.08782606      1.78028609     -0.30869067
   H          1.65751906     -0.87349791     -1.45056567
   H          2.08383606     -2.44266091     -0.79214067
   H          2.06602206     -1.50272691      1.50796533
   H          1.59643006      0.06171609      0.89072133
   H          4.23652406     -1.23867291      0.55652633
   O          5.25834006      0.75488409     -0.32524667
   H          2.61679506      2.09298909      0.62316333
   H          2.30081506      1.48491209     -1.00230767
   H          3.64075206      2.61356309     -0.72942067
