          16
 
   H         -1.95893195      1.23117463      1.29239846
   C         -1.06070463      1.11528658      0.69655225
   C          0.18777282      0.75556346      1.24302544
   C         -1.06070463      1.11528658     -0.69655225
   H          2.34975759      0.20429126      0.00000000
   P          1.42058126      1.27945464      0.00000000
   C          0.18777282     -1.39749831      0.69647025
   H          0.37679588      0.79493047      2.30956082
   C          0.18777282     -1.39749831     -0.69647025
   H         -1.95893195      1.23117463     -1.29239846
   C          0.18777282      0.75556346     -1.24302544
   H          0.37679588      0.79493047     -2.30956082
   H          1.10246114     -1.60704838     -1.23710044
   H         -0.72033551     -1.63428139      1.23514844
   H          1.10246114     -1.60704838      1.23710044
   H         -0.72033551     -1.63428139     -1.23514844
