12
3NH3TS (Full point group Cs)
H 0.000000 1.039215 0.000000
H 0.975536 -0.391735 0.000000
H -0.718624 -0.750749 0.000000
H 1.615871 1.288560 0.821991
H 0.276209 -2.048201 -0.821994
H -1.974443 0.792779 -0.810562
N 1.170289 0.899018 0.000000
N 0.223683 -1.458692 0.000000
N -1.407141 0.564959 0.000000
H 0.276209 -2.048201 0.821994
H -1.974443 0.792779 0.810562
H 1.615871 1.288560 -0.821991
