19
Coordinates from ORCA-job xac
  C   1.46533755543796     -3.06533376264606      1.11310467124933
  H   2.46618893526864     -2.67693286335436      1.29681433724712
  H   1.24966628247999     -3.86843323370461      1.81032984466243
  N   1.43670901584109     -3.59412236016483     -0.23914309239267
  H   0.85257755471018     -4.38641945194164     -0.43823153566980
  C   0.42323363471275     -1.97155433999795      1.33467007327500
  O   -0.56903650455449     -2.15828413802815      2.03057272315968
  C   2.07337077797096     -2.97223478304089     -1.26062975298309
  O   2.70522110300193     -1.92821760680190     -1.09943428595427
  N   0.71137140990612     -0.81649898711283      0.69224716116551
  H   1.51815782552206     -0.82309967120179      0.08100669571678
  C   -0.19864377307819      0.30711764834425      0.70401205705654
  H   0.35178438704629      1.23356593782689      0.84785130184584
  H   -0.76913216968771      0.37448063451451     -0.22227786599329
  H   -0.89010883518470      0.16577584727126      1.52877640638954
  C   1.97621948181323     -3.64376931259278     -2.60597808524998
  H   1.38001570254297     -4.55251577413505     -2.59241518660416
  H   2.98223576813442     -3.87993303626936     -2.94434427586241
  H   1.54673384811651     -2.93989874696469     -3.31453419105811
