          33
 
   N          0.48563791      2.61608242     -0.19480894
   C         -0.56043909      1.77097142     -0.49452794
   C         -0.12401909      0.46194142     -0.46987894
   C          1.26893491      0.51014942     -0.12792794
   C          2.24625791     -0.49455258      0.04404106
   C          3.53249891     -0.10340058      0.38518406
   C          3.86145591      1.26471642      0.55467206
   C          2.91782791      2.25925342      0.38600206
   C          1.61642591      1.86854242      0.04122906
   H          0.41227591      3.61225242     -0.09878594
   H         -1.54010609      2.17109042     -0.69850894
   H          1.98377891     -1.53345058     -0.08874894
   H          4.88054991      1.50744442      0.82154606
   H          3.18420691      3.29987242      0.51802506
   O          4.58097291     -0.96091458      0.58644106
   C          4.30011491     -2.34185158      0.43571506
   H          3.54188391     -2.67263958      1.14908006
   H          3.96571491     -2.57041958     -0.57881594
   H          5.23297091     -2.86088358      0.63366306
   C         -0.90870409     -0.78162658     -0.77436094
   C         -2.41745509     -0.56191858     -0.82820594
   N         -2.90820009     -0.13860258      0.47307106
   C         -4.21874809     -0.03910258      0.85454806
   C         -5.23389909     -0.65551958     -0.08697494
   H         -0.58860909     -1.19459158     -1.73520194
   H         -0.69423309     -1.54241858     -0.01852194
   H         -2.65034509      0.17446242     -1.60578394
   H         -2.90173109     -1.49606658     -1.11035994
   H         -2.26374609      0.35993842      1.06822906
   O         -4.54200509      0.49605042      1.90509506
   H         -6.22292809     -0.48637658      0.32556206
   H         -5.17250009     -0.21100658     -1.08055294
   H         -5.06384009     -1.72742558     -0.19013794
