33
Coordinates from ORCA-job xan
  N   0.92691353188910      0.61242606836588      1.03891696887930
  C   1.14721523485787     -0.73864061831872      0.53123073880374
  C   2.61528110132229     -1.12131427650595      0.32368379566299
  O   3.04021461978179     -2.17969104116203      0.77879393388652
  C   0.32602482740618     -1.03487094817423     -0.73733467568117
  C   -1.12308609820180     -0.71133645025309     -0.52518804064844
  C   -1.67576110494611      0.47373837229917     -1.02108292937954
  C   -1.94181158234406     -1.55541742689391      0.22881381265354
  C   -3.00277183263193      0.81050909646528     -0.77310091010883
  C   -3.27112478665249     -1.22917649855495      0.48407356510510
  C   -3.80417609055192     -0.04083630319409     -0.01477660853302
  O   -5.10000158213068      0.33770392262033      0.20047098356349
  H   0.49028962738028      0.67949769211600      1.94195961567436
  H   0.80342546921361     -1.40646702497696      1.31849037102240
  H   0.72326055843509     -0.46073232515976     -1.57161897519158
  H   0.46252451180672     -2.09473501204452     -0.95954570647258
  H   -1.05804782965291      1.13660974276258     -1.61442726651299
  H   -1.54164177397061     -2.48569510852207      0.61497875853792
  H   -3.43296007551841      1.72187281116731     -1.16485654157112
  H   -3.89441411590909     -1.90005954151280      1.06376340359968
  H   -5.53184954411658     -0.35225355945234      0.71474529500744
  N   3.33462663527807     -0.25377205197595     -0.41759654311236
  H   2.85489071842706      0.56994138160169     -0.76543471565029
  C   4.72318097743849     -0.49764148036239     -0.73921268936284
  H   4.96784175190969     -1.50333490867637     -0.41161348261772
  H   4.88504773351078     -0.41832602491042     -1.81227049116905
  H   5.37838799023272      0.20912959875103     -0.23148505600358
  C   0.97895845760418      1.75220715146041      0.31030283335773
  O   1.44917795099189      1.80194937354529     -0.82874769857608
  C   0.38936304217231      2.96749559218966      0.97869077524345
  H   0.43571129267511      2.91126687703503      2.06397490546820
  H   -0.65597076370841      3.04639831689264      0.68008489170562
  H   0.91564914800177      3.85103960337826      0.63243568241969
