          16
 
   H         -1.20945818      1.86172566      1.29003846
   C         -0.45440791      1.35504148      0.69809425
   C          0.48269242      0.47260917      1.24701344
   C         -0.45440791      1.35504148     -0.69809425
   H          2.36299609      1.39459750      0.00000000
   P          1.78720189      0.08011503      0.00000000
   C         -0.45440791     -1.47386852      0.69782325
   H          0.66001749      0.39345614      2.31291482
   C         -0.45440791     -1.47386852     -0.69782325
   H         -1.20945818      1.86172566     -1.29003846
   C          0.48269242      0.47260917     -1.24701344
   H          0.66001749      0.39345614     -2.31291482
   H          0.26801935     -2.07939874     -1.23145844
   H         -1.36755424     -1.26692145      1.23885944
   H          0.26801935     -2.07939874      1.23145844
   H         -1.36755424     -1.26692145     -1.23885944
