10

   I     0.000000    0.000000    1.441995
   C     0.000000    1.150645   -1.362018
   N     0.000000    0.000000   -0.570333
   O     0.000000    2.281951   -0.968868
   O     0.000000   -2.281951   -0.968868
   C     0.000000   -1.150645   -1.362018
   C     0.000000   -0.661775   -2.780319
   C     0.000000    0.661775   -2.780319
   H     0.000000    1.349337   -3.611742
   H     0.000000   -1.349337   -3.611742
