           8
 
   C         -0.79014324      0.66770681      0.00000000
   C         -0.79014324     -0.66770681      0.00000000
   C          0.79014324     -0.66770681      0.00000000
   C          0.79014324      0.66770681      0.00000000
   H         -1.55344235      1.43673906      0.00000000
   H         -1.55344235     -1.43673906      0.00000000
   H          1.55344235     -1.43673906      0.00000000
   H          1.55344235      1.43673906      0.00000000
