          20
 
   C          1.41518000      2.86928700      0.00000000
   C          1.41518000      1.34616800      0.00000000
   C          0.00893100      0.76126400      0.00000000
   C         -0.00893100     -0.76126400      0.00000000
   C         -1.41518000     -1.34616800      0.00000000
   C         -1.41518000     -2.86928700      0.00000000
   H          0.90091600      3.25586600      0.87966300
   H          0.90091600      3.25586600     -0.87966300
   H          2.42662400      3.27249300      0.00000000
   H          1.95590800      0.97731600      0.87446600
   H          1.95590800      0.97731600     -0.87446600
   H         -0.53419700      1.12923600     -0.87527300
   H         -0.53419700      1.12923600      0.87527300
   H          0.53419700     -1.12923600      0.87527300
   H          0.53419700     -1.12923600     -0.87527300
   H         -1.95590800     -0.97731600     -0.87446600
   H         -1.95590800     -0.97731600      0.87446600
   H         -2.42662400     -3.27249300      0.00000000
   H         -0.90091600     -3.25586600      0.87966300
   H         -0.90091600     -3.25586600     -0.87966300
