          43
 
   H          7.06297725     -1.63698397      0.55058554
   C          6.83974923     -0.85495155     -0.17909964
   H          6.63952340     -1.31642063     -1.15038569
   H          7.72768860     -0.22241236     -0.26245466
   C          5.68839484     -0.01111211      0.34823029
   O          5.73947739      0.54726888      1.44028240
   N          4.60714179      0.08445653     -0.47815305
   H          4.56234385     -0.41928756     -1.35335446
   C          3.40569097      0.81498533     -0.10916782
   H          3.41072759      0.89334006      0.98239535
   C          3.37045504      2.22526940     -0.72227387
   H          3.38045187      2.16387839     -1.81428127
   H          2.46827118      2.76386652     -0.41282226
   H          4.24349670      2.78977733     -0.38699200
   C          2.21122414     -0.01031733     -0.60317104
   O          2.21309822     -0.50849043     -1.72780518
   N          1.18562223     -0.15244660      0.27564002
   H          1.20146899      0.30394831      1.17901739
   C         -0.07068301     -0.79255468     -0.07695257
   H         -0.15454074     -0.79169210     -1.16678154
   C         -0.10520716     -2.24635259      0.41243170
   H          0.73414681     -2.78312858     -0.05175592
   H          0.03263775     -2.25530844      1.50314128
   O         -1.36444330     -2.78205563      0.03061601
   H         -1.39994024     -3.70420680      0.31058951
   C         -1.19138031      0.02306936      0.58384683
   O         -1.05828297      0.42167776      1.74288617
   N         -2.26594519      0.29884498     -0.18741167
   H         -2.37477086     -0.13248235     -1.09682243
   C         -3.43467695      1.00041183      0.32705071
   H         -3.41305082      0.89464311      1.41645948
   C         -3.41343509      2.49177474     -0.04403583
   H         -3.42102577      2.60757409     -1.13073445
   H         -4.28711760      3.00749670      0.36777519
   H         -2.51123694      2.95767547      0.36021272
   C         -4.66745757      0.31774204     -0.28282211
   O         -4.69548577      0.04214968     -1.47906974
   N         -5.68639226      0.06321737      0.57935146
   H         -5.55766060      0.28687419      1.55510987
   C         -6.93899805     -0.54238269      0.15698417
   H         -7.10136988     -1.50147993      0.66148977
   H         -7.78745543      0.11699496      0.36653833
   H         -6.87213696     -0.71153069     -0.91702353
