           6
 
   CL        -0.00027464      0.01924291      2.32253735
   C          0.00021336      0.00020291     -0.00005239
   H          0.76098004     -0.75101627      0.00641362
   H         -1.03075062     -0.28300715      0.00218361
   H          0.27042850      1.03464473     -0.00866041
   CL        -0.00059664     -0.02006713     -2.32242179
