          38
 
   C         -0.89395845     -0.89395845     -0.89395845
   C          0.89395845      0.89395845     -0.89395845
   C         -0.89395845      0.89395845      0.89395845
   C          0.89395845     -0.89395845      0.89395845
   C         -1.75628099      0.00000000      0.00000000
   C          0.00000000      0.00000000     -1.75628099
   C          0.00000000      1.75628099      0.00000000
   C          0.00000000     -1.75628099      0.00000000
   C          1.75628099      0.00000000      0.00000000
   C          0.00000000      0.00000000      1.75628099
   H         -2.40693646     -0.62388081      0.62388081
   H          0.62388081     -0.62388081     -2.40693646
   H          0.62388081      2.40693646      0.62388081
   H         -0.62388081     -2.40693646      0.62388081
   H          2.40693646     -0.62388081     -0.62388081
   H          0.62388081      0.62388081      2.40693646
   H         -0.62388081     -0.62388081      2.40693646
   H          0.62388081     -2.40693646     -0.62388081
   H          2.40693646      0.62388081      0.62388081
   H         -2.40693646      0.62388081     -0.62388081
   H         -0.62388081      0.62388081     -2.40693646
   H         -0.62388081      2.40693646     -0.62388081
   C         -1.77194992     -1.77194992     -1.77194992
   C          1.77194992      1.77194992     -1.77194992
   C         -1.77194992      1.77194992      1.77194992
   C          1.77194992     -1.77194992      1.77194992
   H          1.16253759      2.41236692     -2.41236692
   H         -2.41236692      2.41236692      1.16253759
   H         -2.41236692     -1.16253759     -2.41236692
   H          2.41236692      1.16253759     -2.41236692
   H         -1.16253759      2.41236692      2.41236692
   H         -2.41236692     -2.41236692     -1.16253759
   H          2.41236692      2.41236692     -1.16253759
   H         -2.41236692      1.16253759      2.41236692
   H         -1.16253759     -2.41236692     -2.41236692
   H          1.16253759     -2.41236692      2.41236692
   H          2.41236692     -2.41236692      1.16253759
   H          2.41236692     -1.16253759      2.41236692
