          33
 
   N         -0.18061670      2.66884539     -0.40798918
   C          0.81552430      1.89404039     -0.96341218
   C          0.40098630      0.58249039     -1.04375118
   C         -0.93015570      0.54930839     -0.50518718
   C         -1.86971670     -0.49125261     -0.32743818
   C         -3.10245170     -0.17555961      0.22490282
   C         -3.41636170      1.15310139      0.60426182
   C         -2.51080770      2.18287439      0.43554482
   C         -1.26375870      1.86909239     -0.12251918
   H         -0.14029870      3.66354139     -0.28267818
   H          1.75108030      2.33346939     -1.27009718
   H         -1.62519670     -1.49862361     -0.62977218
   H         -4.39315570      1.33786139      1.02907982
   H         -2.76646170      3.19377439      0.72594982
   O         -4.10866170     -1.07663761      0.45312282
   C         -3.84593170     -2.41844661      0.08032382
   H         -2.99760970     -2.82596061      0.63519482
   H         -3.64997870     -2.50176161     -0.99105018
   H         -4.74182570     -2.97948061      0.32824982
   C          1.21115330     -0.57962661     -1.52380718
   C          1.64626230     -1.49636561     -0.36834918
   N          2.38622730     -0.78558961      0.65981182
   C          3.68885430     -0.42982661      0.46514882
   C          4.28222630      0.47206139      1.52914982
   H          2.10684830     -0.22560361     -2.03525318
   H          0.63994530     -1.17528061     -2.24169118
   H          2.28601330     -2.29039561     -0.74911118
   H          0.77571630     -1.94893861      0.10609782
   H          1.85952230     -0.27619661      1.34735082
   O          4.34325330     -0.82092161     -0.49216818
   H          5.22285630      0.04078139      1.86392182
   H          3.62501030      0.61488639      2.38490482
   H          4.50150930      1.44033939      1.08125882
