          28
 
   C          0.16170434      0.69113518     -0.78141729
   C          0.16170434      0.69113518      0.78141729
   C         -0.14793113     -0.62619558      1.48274767
   C         -1.57359510     -1.14398647      1.28858606
   C         -1.79068409     -1.92924232      0.00000000
   C         -1.57359510     -1.14398647     -1.28858606
   C         -0.14793113     -0.62619558     -1.48274767
   C          1.54439499      1.23656103     -1.18043115
   C          1.96833424      2.10330195      0.00000000
   C          1.54439499      1.23656103      1.18043115
   H         -0.59144400      1.41131707     -1.11393403
   H         -0.59144400      1.41131707      1.11393403
   H          0.02784999     -0.46780689      2.55022958
   H          0.56878422     -1.39236649      1.17137347
   H         -1.83270121     -1.79311207      2.12749599
   H         -2.26905636     -0.29980846      1.32751837
   H         -2.80538248     -2.33363109      0.00000000
   H         -1.11573224     -2.79062782      0.00000000
   H         -1.83270121     -1.79311207     -2.12749599
   H         -2.26905636     -0.29980846     -1.32751837
   H          0.56878422     -1.39236649     -1.17137347
   H          0.02784999     -0.46780689     -2.55022958
   H          2.24478166      0.40201345     -1.28044836
   H          1.52213690      1.76279384     -2.13451420
   H          1.40431988      3.03889707      0.00000000
   H          3.02929609      2.35021301      0.00000000
   H          1.52213690      1.76279384      2.13451420
   H          2.24478166      0.40201345      1.28044836
