25
Coordinates from ORCA-job xad
  N   -1.76020822907781      0.57734738907325      0.09223109053106
  H   -1.99806344345223      1.49143303980502     -0.26385416566909
  C   -0.35266640003538      0.27997897512280      0.13525738837321
  H   -0.08563442995012     -0.08812068646328      1.12681752039437
  C   -0.00913782164766     -0.80685815885977     -0.88780597774023
  C   0.37213893885161      1.59584500183002     -0.15846834073548
  H   -0.03106116426921     -0.41353536605057     -1.90487013496727
  H   -0.77339327683488     -1.58202262455896     -0.82132316893017
  C   1.30764179893300     -1.48434697783306     -0.64968007183981
  O   -0.23022850515230      2.55142590196246     -0.64561082499085
  O   1.53734072293983     -2.44113528225175     -1.56750039713965
  O   2.08907055750876     -1.24957548303680      0.25121779743571
  N   1.68356925482509      1.59408996907118      0.14376971879538
  C   2.54149195956234      2.72612125477286     -0.13331687596981
  H   2.07296961137666      0.72924441186560      0.49164617314062
  H   1.91979398429337      3.52235098932878     -0.52948521563944
  H   3.02813486486828      3.07046385670138      0.77665849779005
  H   3.30326646066263      2.46808671191802     -0.86697729046923
  C   -2.67849622868862     -0.28993671036851      0.58319833806751
  C   -4.11086772012929      0.18025296762461      0.53376510740139
  O   -2.35961037991259     -1.38487178952055      1.03968626370280
  H   -4.47825888122585      0.27369261853734      1.55336773764702
  H   -4.70908840968968     -0.57841687326572      0.03592447340394
  H   -4.22939872401586      1.13167768052130      0.02170763739057
  H   2.38760646025991     -2.84040981592565     -1.32809527998261
