           6
 
   C          0.00000000      0.00000000     -0.48547762
   C          0.00000000      0.00000000      0.93244229
   O          0.00000000      0.00000000      2.04324747
   H          0.52121365     -0.90276852     -0.83007071
   H          0.52121365      0.90276852     -0.83007071
   H         -1.04242729      0.00000000     -0.83007071
