19
Coordinates from ORCA-job xab
  C   0.28415557255616     -0.34448940944466     -0.03620812820715
  H   0.35246587030465     -0.97849350059692     -0.92395455802100
  H   0.39008107950182     -1.01023154753068      0.82352095642706
  N   -0.96614189369948      0.35391046088794      0.00510850655416
  H   -0.90931078162851      1.36022671615871     -0.01074359628644
  C   1.39804869085627      0.68563927514722     -0.04636775667899
  O   1.16434153892435      1.88965846078400     -0.05526578787463
  C   -2.13854452461252     -0.32541924800298      0.02507147152911
  O   -2.17692691366060     -1.55138170680446      0.02421051087359
  N   2.65617211050897      0.18377647479379     -0.06012019585496
  H   3.38250599986825      0.87962382776757     -0.01566149264409
  C   3.00750958683918     -1.21585220874154      0.06670629497375
  H   4.06626050387981     -1.32518669456246     -0.14686056224601
  H   2.81748136309169     -1.60357185867934      1.06777730273077
  H   2.46033692057163     -1.82161417898915     -0.65181738628695
  C   -3.38442251967130      0.52616815409539      0.04215369752471
  H   -3.94275547053226      0.34190730678749     -0.87294327557496
  H   -3.17361893928302      1.58937644313646      0.12497085718359
  H   -4.00636319381510      0.21347523379363      0.87679514187845
