16
 
N    -2.2457949   -0.2504414    0.0399522 
C    -2.6671084    1.0487030    0.0919323 
N    -1.6823759    1.8951394    0.0899244 
C    -0.5573519    1.1128122    0.0334272 
C     0.8182019    1.4756493    0.0073224 
O     1.3144788    2.5893434    0.0287574 
N     1.6298233    0.3386813   -0.0510255 
C     1.1955645   -0.9570015   -0.0791942 
N     2.1361100   -1.9090195   -0.1776381 
N    -0.0700750   -1.2886500   -0.0508389 
C    -0.8928831   -0.2291641    0.0018428 
H    -2.8361274   -1.0695586    0.0327575 
H     3.1012557   -1.7081331    0.0264200 
H     1.8461136   -2.8636319   -0.0435316 
H    -3.7168872    1.3001465    0.1297499 
H     2.6270561    0.5151250   -0.0798578 
