          14
 
   C          1.23832315      0.00000000     -0.18227438
   C          1.22852774      0.00000000      1.18398542
   C          0.00000000      0.00000000      1.85844744
   C         -1.22852774      0.00000000      1.18398542
   C         -1.23832315      0.00000000     -0.18227438
   C          0.00000000      0.00000000     -0.90235265
   C          0.00000000      0.00000000     -2.26407696
   H         -0.92729760      0.00000000     -2.82867163
   H          0.92729760      0.00000000     -2.82867163
   H          2.16959134      0.00000000     -0.73741913
   H          2.15324231      0.00000000      1.74656525
   H          0.00000000      0.00000000      2.94361113
   H         -2.15324231      0.00000000      1.74656525
   H         -2.16959134      0.00000000     -0.73741913
